/*---------------------------------------------------------------------------*\
  =========                 |
  \\      /  F ield         | OpenFOAM: The Open Source CFD Toolbox
   \\    /   O peration     | Website:  https://openfoam.org
    \\  /    A nd           | Version:  9
     \\/     M anipulation  |
\*---------------------------------------------------------------------------*/
Build  : 9-b456138dc4bc
Exec   : blastFoam
Date   : Jan 15 2025
Time   : 09:22:35
Host   : "mail-18"
PID    : 110873
I/O    : uncollated
Case   : /home/reid/OpenFOAM/blastfoam/tutorials/blastFoam/mappedBuilding3D/sector
nProcs : 1
sigFpe : Enabling floating point exception trapping (FOAM_SIGFPE).
fileModificationChecking : Monitoring run-time modified files using timeStampMaster (fileModificationSkew 10)
allowSystemOperations : Allowing user-supplied system call operations

// * * * * * * * * * * * * * * * * * * * * * * * * * * * * * * * * * * * * * //
Create time

Create mesh for time = 0


Reading g
Selecting timeIntegrator: RK2SSP
Reading phaseProperties dictionary

Selecting thermodynamics package phaseFluid<detonating<const<eConst<Murnaghan<specie>>>,const<eConst<JWL<specie>>>>>
Selecting activationModel: pressureBased
Initiation Points: 
    1((0 0 1))
Delays: 
    1(0)
Radii: 
    1(0.05)
reactants
Selecting afterburnModel: none
Selecting thermodynamics package phaseFluid<basic<const<eConst<idealGas<specie>>>>>
Selecting univariate root solver: NewtonRaphson
Selecting univariate root solver: NewtonRaphson
Selecting fluxScheme: Kurganov

Starting time loop

Courant Number Mean/Max = 0.0016984301687, 0.00701734408901
deltaT = 1.19904076739e-08
Time = 1.19904e-08

Calculating Fluxes
RK2SSP: step 1
Solving compressibleSystem:
activating point (0 0 1)

RK2SSP: step 2
Solving compressibleSystem:

Post-updating compressibleSystem:

max(p): 11432133897.5, min(p): 101298
max(T): 2614.02765294, min(T): 287.925643795
ExecutionTime = 0.01 s  ClockTime = 0 s

Courant Number Mean/Max = 0.00203997303549, 0.0431119742229
deltaT = 1.43712368235e-08
Time = 2.63616e-08

Calculating Fluxes
RK2SSP: step 1
Solving compressibleSystem:

RK2SSP: step 2
Solving compressibleSystem:

Post-updating compressibleSystem:

max(p): 11432133897.5, min(p): 101298
max(T): 2614.02765294, min(T): 287.912230847
ExecutionTime = 0.02 s  ClockTime = 0 s

Courant Number Mean/Max = 0.00244505505998, 0.0516723374499
deltaT = 1.7225627557e-08
Time = 4.35873e-08

Calculating Fluxes
RK2SSP: step 1
Solving compressibleSystem:

RK2SSP: step 2
Solving compressibleSystem:

Post-updating compressibleSystem:

max(p): 11475021587.8, min(p): 101298
max(T): 2676.46078321, min(T): 287.876213699
ExecutionTime = 0.03 s  ClockTime = 0 s

Courant Number Mean/Max = 0.00293125478228, 0.0619354096549
deltaT = 2.06564579418e-08
Time = 6.42437e-08

Calculating Fluxes
RK2SSP: step 1
Solving compressibleSystem:

RK2SSP: step 2
Solving compressibleSystem:

Post-updating compressibleSystem:

max(p): 11487812348.1, min(p): 101298
max(T): 2658.48686981, min(T): 287.846523299
ExecutionTime = 0.04 s  ClockTime = 0 s

Courant Number Mean/Max = 0.00351589465188, 0.0742710929057
deltaT = 2.47774470574e-08
Time = 8.90212e-08

Calculating Fluxes
RK2SSP: step 1
Solving compressibleSystem:

RK2SSP: step 2
Solving compressibleSystem:

Post-updating compressibleSystem:

max(p): 11472725217.1, min(p): 101298
max(T): 2655.95491261, min(T): 287.820634863
ExecutionTime = 0.04 s  ClockTime = 0 s

Courant Number Mean/Max = 0.00421839546803, 0.0890882685477
deltaT = 2.96735892903e-08
Time = 1.18695e-07

Calculating Fluxes
RK2SSP: step 1
Solving compressibleSystem:

RK2SSP: step 2
Solving compressibleSystem:

Post-updating compressibleSystem:

max(p): 11489674087.4, min(p): 101298
max(T): 2672.83392646, min(T): 287.797174221
ExecutionTime = 0.05 s  ClockTime = 0 s

Courant Number Mean/Max = 0.00505336199572, 0.106692537183
deltaT = 3.55442634304e-08
Time = 1.54239e-07

Calculating Fluxes
RK2SSP: step 1
Solving compressibleSystem:

RK2SSP: step 2
Solving compressibleSystem:

Post-updating compressibleSystem:

max(p): 11509592808.3, min(p): 101298
max(T): 2680.3359553, min(T): 287.779691041
ExecutionTime = 0.06 s  ClockTime = 0 s

Courant Number Mean/Max = 0.00605492375653, 0.127800772957
deltaT = 4.26223418624e-08
Time = 1.96861e-07

Calculating Fluxes
RK2SSP: step 1
Solving compressibleSystem:

RK2SSP: step 2
Solving compressibleSystem:

Post-updating compressibleSystem:

max(p): 11526221330.6, min(p): 101298
max(T): 2688.17774678, min(T): 287.772932969
ExecutionTime = 0.07 s  ClockTime = 0 s

Courant Number Mean/Max = 0.00726297916164, 0.153250277528
deltaT = 5.10580136894e-08
Time = 2.47919e-07

Calculating Fluxes
RK2SSP: step 1
Solving compressibleSystem:

RK2SSP: step 2
Solving compressibleSystem:

Post-updating compressibleSystem:

max(p): 11554940184.9, min(p): 101298
max(T): 2697.02442846, min(T): 287.774120373
ExecutionTime = 0.08 s  ClockTime = 0 s

Courant Number Mean/Max = 0.00870341417503, 0.183581061622
deltaT = 6.09505038417e-08
Time = 3.0887e-07

Calculating Fluxes
RK2SSP: step 1
Solving compressibleSystem:

RK2SSP: step 2
Solving compressibleSystem:

Post-updating compressibleSystem:

max(p): 11593612680, min(p): 101298
max(T): 2704.98580161, min(T): 287.782697724
ExecutionTime = 0.08 s  ClockTime = 0 s

Courant Number Mean/Max = 0.0103934977792, 0.219149892311
deltaT = 7.28656399311e-08
Time = 3.81736e-07

Calculating Fluxes
RK2SSP: step 1
Solving compressibleSystem:

RK2SSP: step 2
Solving compressibleSystem:

Post-updating compressibleSystem:

max(p): 11646749651.1, min(p): 101298
max(T): 2711.1528402, min(T): 287.589947759
ExecutionTime = 0.09 s  ClockTime = 0 s

Courant Number Mean/Max = 0.0124301511663, 0.261991224643
deltaT = 8.66510312694e-08
Time = 4.68387e-07

Calculating Fluxes
RK2SSP: step 1
Solving compressibleSystem:

RK2SSP: step 2
Solving compressibleSystem:

Post-updating compressibleSystem:

max(p): 11720284962.3, min(p): 101298
max(T): 2716.08747063, min(T): 287.542596973
ExecutionTime = 0.1 s  ClockTime = 0 s

Courant Number Mean/Max = 0.0147880164608, 0.311557132008
deltaT = 1.00332773049e-07
Time = 5.68719e-07

Calculating Fluxes
RK2SSP: step 1
Solving compressibleSystem:

RK2SSP: step 2
Solving compressibleSystem:

Post-updating compressibleSystem:

max(p): 11813434501.9, min(p): 101298
max(T): 2714.80338338, min(T): 287.824439362
ExecutionTime = 0.11 s  ClockTime = 0 s

Courant Number Mean/Max = 0.0171306335785, 0.360750363377
deltaT = 1.13629887549e-07
Time = 6.82349e-07

Calculating Fluxes
RK2SSP: step 1
Solving compressibleSystem:

RK2SSP: step 2
Solving compressibleSystem:

Post-updating compressibleSystem:

max(p): 11921846030.1, min(p): 101298
max(T): 2742.13319958, min(T): 287.833573214
ExecutionTime = 0.12 s  ClockTime = 0 s

Courant Number Mean/Max = 0.0194103336866, 0.4085606525
deltaT = 1.25914199717e-07
Time = 8.08263e-07

Calculating Fluxes
RK2SSP: step 1
Solving compressibleSystem:

RK2SSP: step 2
Solving compressibleSystem:

Post-updating compressibleSystem:

max(p): 12042644565.9, min(p): 101298
max(T): 2740.81725275, min(T): 287.840678876
ExecutionTime = 0.13 s  ClockTime = 0 s

Courant Number Mean/Max = 0.0215198151431, 0.452729371689
deltaT = 1.37190098199e-07
Time = 9.45454e-07

Calculating Fluxes
RK2SSP: step 1
Solving compressibleSystem:

RK2SSP: step 2
Solving compressibleSystem:

Post-updating compressibleSystem:

max(p): 12162285521, min(p): 101298
max(T): 2739.58341598, min(T): 287.847225069
ExecutionTime = 0.14 s  ClockTime = 0 s

Courant Number Mean/Max = 0.0234598412168, 0.493272300497
deltaT = 1.37190098199e-07
Time = 1.08264e-06

Calculating Fluxes
RK2SSP: step 1
Solving compressibleSystem:

RK2SSP: step 2
Solving compressibleSystem:

Post-updating compressibleSystem:

max(p): 12338100918.8, min(p): 101298
max(T): 2741.70049295, min(T): 287.853419226
ExecutionTime = 0.14 s  ClockTime = 0 s

Courant Number Mean/Max = 0.0234734358597, 0.493272300497
deltaT = 1.37190098199e-07
Time = 1.21983e-06

Calculating Fluxes
RK2SSP: step 1
Solving compressibleSystem:

RK2SSP: step 2
Solving compressibleSystem:

Post-updating compressibleSystem:

max(p): 12522022461.8, min(p): 101298
max(T): 2739.34221742, min(T): 287.858793617
ExecutionTime = 0.15 s  ClockTime = 0 s

Courant Number Mean/Max = 0.0234876463951, 0.493272300497
deltaT = 1.37190098199e-07
Time = 1.35702e-06

Calculating Fluxes
RK2SSP: step 1
Solving compressibleSystem:

RK2SSP: step 2
Solving compressibleSystem:

Post-updating compressibleSystem:

max(p): 12532954573.2, min(p): 101298
max(T): 2739.73089996, min(T): 287.863173759
ExecutionTime = 0.16 s  ClockTime = 0 s

Courant Number Mean/Max = 0.0235024910519, 0.493272300497
deltaT = 1.37190098199e-07
Time = 1.49421e-06

Calculating Fluxes
RK2SSP: step 1
Solving compressibleSystem:

RK2SSP: step 2
Solving compressibleSystem:

Post-updating compressibleSystem:

max(p): 12575680820, min(p): 101298
max(T): 2738.92442478, min(T): 287.86676714
ExecutionTime = 0.16 s  ClockTime = 0 s

Courant Number Mean/Max = 0.0235180674163, 0.493272300497
deltaT = 1.37190098199e-07
Time = 1.6314e-06

Calculating Fluxes
RK2SSP: step 1
Solving compressibleSystem:

RK2SSP: step 2
Solving compressibleSystem:

Post-updating compressibleSystem:

max(p): 12587786910.4, min(p): 101298
max(T): 2737.33480038, min(T): 287.869756311
ExecutionTime = 0.17 s  ClockTime = 0 s

Courant Number Mean/Max = 0.0235344461065, 0.493272300497
deltaT = 1.37190098199e-07
Time = 1.76859e-06

Calculating Fluxes
RK2SSP: step 1
Solving compressibleSystem:

RK2SSP: step 2
Solving compressibleSystem:

Post-updating compressibleSystem:

max(p): 12597611134.8, min(p): 101298
max(T): 2735.16776436, min(T): 287.872286772
ExecutionTime = 0.18 s  ClockTime = 0 s

Courant Number Mean/Max = 0.0235515220177, 0.493272300497
deltaT = 1.37190098199e-07
Time = 1.90578e-06

Calculating Fluxes
RK2SSP: step 1
Solving compressibleSystem:

RK2SSP: step 2
Solving compressibleSystem:

Post-updating compressibleSystem:

max(p): 12596925267.6, min(p): 101298
max(T): 2732.69544179, min(T): 287.874453529
ExecutionTime = 0.19 s  ClockTime = 0 s

Courant Number Mean/Max = 0.0235694457735, 0.493272300497
deltaT = 1.37190098199e-07
Time = 2.04297e-06

Calculating Fluxes
RK2SSP: step 1
Solving compressibleSystem:

RK2SSP: step 2
Solving compressibleSystem:

Post-updating compressibleSystem:

max(p): 12600066043.4, min(p): 101298
max(T): 2730.09363572, min(T): 287.843491806
ExecutionTime = 0.19 s  ClockTime = 0 s

Courant Number Mean/Max = 0.0235880986411, 0.493272300497
deltaT = 1.37190098199e-07
Time = 2.18016e-06

Calculating Fluxes
RK2SSP: step 1
Solving compressibleSystem:

RK2SSP: step 2
Solving compressibleSystem:

Post-updating compressibleSystem:

max(p): 12607629995.9, min(p): 101298
max(T): 2727.54842068, min(T): 287.797849265
ExecutionTime = 0.2 s  ClockTime = 0 s

Courant Number Mean/Max = 0.0236076432167, 0.493272300497
deltaT = 1.37190098199e-07
Time = 2.31735e-06

Calculating Fluxes
RK2SSP: step 1
Solving compressibleSystem:

RK2SSP: step 2
Solving compressibleSystem:

Post-updating compressibleSystem:

max(p): 12612206703.3, min(p): 101298
max(T): 2725.06525211, min(T): 287.75735664
ExecutionTime = 0.21 s  ClockTime = 0 s

Courant Number Mean/Max = 0.0236279429064, 0.493272300497
deltaT = 1.37190098199e-07
Time = 2.45454e-06

Calculating Fluxes
RK2SSP: step 1
Solving compressibleSystem:

RK2SSP: step 2
Solving compressibleSystem:

Post-updating compressibleSystem:

max(p): 12614370669.1, min(p): 101298
max(T): 2722.68879602, min(T): 287.716955897
ExecutionTime = 0.21 s  ClockTime = 0 s

Courant Number Mean/Max = 0.0236491759709, 0.493272300497
deltaT = 1.37190098199e-07
Time = 2.59173e-06

Calculating Fluxes
RK2SSP: step 1
Solving compressibleSystem:

RK2SSP: step 2
Solving compressibleSystem:

Post-updating compressibleSystem:

max(p): 12622963289, min(p): 101298
max(T): 2720.58964568, min(T): 287.678231061
ExecutionTime = 0.22 s  ClockTime = 0 s

Courant Number Mean/Max = 0.0236711921593, 0.493272300497
deltaT = 1.37190098199e-07
Time = 2.72892e-06

Calculating Fluxes
RK2SSP: step 1
Solving compressibleSystem:

RK2SSP: step 2
Solving compressibleSystem:

Post-updating compressibleSystem:

max(p): 12620863594.1, min(p): 101298
max(T): 2718.84704466, min(T): 287.641984529
ExecutionTime = 0.23 s  ClockTime = 0 s

Courant Number Mean/Max = 0.0236941878191, 0.493272300497
deltaT = 1.37190098199e-07
Time = 2.86611e-06

Calculating Fluxes
RK2SSP: step 1
Solving compressibleSystem:

RK2SSP: step 2
Solving compressibleSystem:

Post-updating compressibleSystem:

max(p): 12631800800.8, min(p): 101298
max(T): 2717.44883202, min(T): 280.677468064
ExecutionTime = 0.24 s  ClockTime = 0 s

Courant Number Mean/Max = 0.0237192083777, 0.493272300497
deltaT = 1.37190098199e-07
Time = 3.0033e-06

Calculating Fluxes
RK2SSP: step 1
Solving compressibleSystem:

RK2SSP: step 2
Solving compressibleSystem:

Post-updating compressibleSystem:

max(p): 12627198672.1, min(p): 101298
max(T): 2716.24540133, min(T): 235.51408
ExecutionTime = 0.24 s  ClockTime = 0 s

Courant Number Mean/Max = 0.0237505441423, 0.493272300497
deltaT = 1.37190098199e-07
Time = 3.1405e-06

Calculating Fluxes
RK2SSP: step 1
Solving compressibleSystem:

RK2SSP: step 2
Solving compressibleSystem:

Post-updating compressibleSystem:

max(p): 12640526241.1, min(p): 101298
max(T): 2715.14358787, min(T): 105.186671897
ExecutionTime = 0.25 s  ClockTime = 0 s

Courant Number Mean/Max = 0.0237920807794, 0.493272300496
deltaT = 1.37190098199e-07
Time = 3.27769e-06

Calculating Fluxes
RK2SSP: step 1
Solving compressibleSystem:

RK2SSP: step 2
Solving compressibleSystem:

Post-updating compressibleSystem:

max(p): 12633352602.4, min(p): 3577.44089896
max(T): 2714.0282918, min(T): 0
ExecutionTime = 0.26 s  ClockTime = 0 s

Courant Number Mean/Max = 0.0239156583727, 1.02400222772
deltaT = 6.65575723935e-08
Time = 3.34424e-06

Calculating Fluxes
RK2SSP: step 1
Solving compressibleSystem:

RK2SSP: step 2
Solving compressibleSystem:

Post-updating compressibleSystem:

max(p): 12666106311.2, min(p): 101298
max(T): 2713.47631189, min(T): 261.536483665
ExecutionTime = 0.26 s  ClockTime = 0 s

Courant Number Mean/Max = 0.0116740623542, 0.902050130948
deltaT = 3.67721394439e-08
Time = 3.38101e-06

Calculating Fluxes
RK2SSP: step 1
Solving compressibleSystem:

RK2SSP: step 2
Solving compressibleSystem:

Post-updating compressibleSystem:

max(p): 12751451117.9, min(p): 101298
max(T): 7544.22673244, min(T): 280.076208109
ExecutionTime = 0.27 s  ClockTime = 0 s

Courant Number Mean/Max = 0.00649994706856, 0.602535032817
deltaT = 3.05022354834e-08
Time = 3.41152e-06

Calculating Fluxes
RK2SSP: step 1
Solving compressibleSystem:

RK2SSP: step 2
Solving compressibleSystem:

Post-updating compressibleSystem:

max(p): 12760874196.2, min(p): 101298
max(T): 6078.6686037, min(T): 287.925643795
ExecutionTime = 0.28 s  ClockTime = 0 s

Courant Number Mean/Max = 0.00541011370322, 0.522354561627
deltaT = 2.91525790461e-08
Time = 3.44067e-06

Calculating Fluxes
RK2SSP: step 1
Solving compressibleSystem:

RK2SSP: step 2
Solving compressibleSystem:

Post-updating compressibleSystem:

max(p): 12863057493.5, min(p): 101298
max(T): 7580.77185075, min(T): 287.925643795
ExecutionTime = 0.29 s  ClockTime = 0 s

Courant Number Mean/Max = 0.00518513835872, 0.518766154725
deltaT = 2.80313260059e-08
Time = 3.4687e-06

Calculating Fluxes
RK2SSP: step 1
Solving compressibleSystem:

RK2SSP: step 2
Solving compressibleSystem:

Post-updating compressibleSystem:

max(p): 12959608662.5, min(p): 101298
max(T): 7460.26190447, min(T): 287.925643795
ExecutionTime = 0.3 s  ClockTime = 0 s

Courant Number Mean/Max = 0.00500327880831, 0.504686020373
deltaT = 2.76749955905e-08
Time = 3.49638e-06

Calculating Fluxes
RK2SSP: step 1
Solving compressibleSystem:

RK2SSP: step 2
Solving compressibleSystem:

Post-updating compressibleSystem:

max(p): 13034755413.8, min(p): 101298
max(T): 8175.5658923, min(T): 138.013395305
ExecutionTime = 0.3 s  ClockTime = 0 s

Courant Number Mean/Max = 0.00495974113149, 0.489133131268
deltaT = 2.82766259295e-08
Time = 3.52465e-06

Calculating Fluxes
RK2SSP: step 1
Solving compressibleSystem:

RK2SSP: step 2
Solving compressibleSystem:

Post-updating compressibleSystem:

max(p): 13097920357.5, min(p): 101298
max(T): 8712.24844845, min(T): 287.925643795
ExecutionTime = 0.31 s  ClockTime = 0 s

Courant Number Mean/Max = 0.00509867664199, 0.50397698538
deltaT = 2.80318066573e-08
Time = 3.55268e-06

Calculating Fluxes
RK2SSP: step 1
Solving compressibleSystem:

RK2SSP: step 2
Solving compressibleSystem:

Post-updating compressibleSystem:

max(p): 13151522407.5, min(p): 101298
max(T): 8495.26485656, min(T): 287.925643795
ExecutionTime = 0.31 s  ClockTime = 0 s

Courant Number Mean/Max = 0.005077876667, 0.501206045373
deltaT = 2.7910456845e-08
Time = 3.58059e-06

Calculating Fluxes
RK2SSP: step 1
Solving compressibleSystem:

RK2SSP: step 2
Solving compressibleSystem:

Post-updating compressibleSystem:

max(p): 13197310392.6, min(p): 101298
max(T): 9110.88506, min(T): 287.925643795
ExecutionTime = 0.33 s  ClockTime = 0 s

Courant Number Mean/Max = 0.00507805491371, 0.491650496809
deltaT = 2.82793175081e-08
Time = 3.60887e-06

Calculating Fluxes
RK2SSP: step 1
Solving compressibleSystem:

RK2SSP: step 2
Solving compressibleSystem:

Post-updating compressibleSystem:

max(p): 13236878139.4, min(p): 101298
max(T): 9349.98547019, min(T): 287.925643795
ExecutionTime = 0.33 s  ClockTime = 0 s

Courant Number Mean/Max = 0.00516767685326, 0.501280646994
deltaT = 2.81547390169e-08
Time = 3.63703e-06

Calculating Fluxes
RK2SSP: step 1
Solving compressibleSystem:

RK2SSP: step 2
Solving compressibleSystem:

Post-updating compressibleSystem:

max(p): 13271586188.3, min(p): 101298
max(T): 8990.57754238, min(T): 287.925643795
ExecutionTime = 0.34 s  ClockTime = 0 s

Courant Number Mean/Max = 0.00516726593319, 0.498926856043
deltaT = 2.81547390169e-08
Time = 3.66518e-06

Calculating Fluxes
RK2SSP: step 1
Solving compressibleSystem:

RK2SSP: step 2
Solving compressibleSystem:

Post-updating compressibleSystem:

max(p): 13303250420.2, min(p): 101298
max(T): 9929.82273281, min(T): 287.925643795
ExecutionTime = 0.35 s  ClockTime = 0 s

Courant Number Mean/Max = 0.00518958958666, 0.490375120319
deltaT = 2.86643270534e-08
Time = 3.69385e-06

Calculating Fluxes
RK2SSP: step 1
Solving compressibleSystem:

RK2SSP: step 2
Solving compressibleSystem:

Post-updating compressibleSystem:

max(p): 13332828203.4, min(p): 101298
max(T): 9954.76411516, min(T): 287.925643795
ExecutionTime = 0.35 s  ClockTime = 0 s

Courant Number Mean/Max = 0.00530602311059, 0.503814216776
deltaT = 2.84060898727e-08
Time = 3.72225e-06

Calculating Fluxes
RK2SSP: step 1
Solving compressibleSystem:

RK2SSP: step 2
Solving compressibleSystem:

Post-updating compressibleSystem:

max(p): 13359665657.9, min(p): 101298
max(T): 9767.57558057, min(T): 287.925643795
ExecutionTime = 0.36 s  ClockTime = 0 s

Courant Number Mean/Max = 0.00528108670104, 0.497205666614
deltaT = 2.85352084631e-08
Time = 3.75079e-06

Calculating Fluxes
RK2SSP: step 1
Solving compressibleSystem:

RK2SSP: step 2
Solving compressibleSystem:

Post-updating compressibleSystem:

max(p): 13384280317.8, min(p): 101298
max(T): 10466.4738911, min(T): 287.925643795
ExecutionTime = 0.37 s  ClockTime = 0 s

Courant Number Mean/Max = 0.00532650285546, 0.492350458541
deltaT = 2.89315308028e-08
Time = 3.77972e-06

Calculating Fluxes
RK2SSP: step 1
Solving compressibleSystem:

RK2SSP: step 2
Solving compressibleSystem:

Post-updating compressibleSystem:

max(p): 13406960161.8, min(p): 101298
max(T): 10353.9011593, min(T): 287.925643795
ExecutionTime = 0.38 s  ClockTime = 0 s

Courant Number Mean/Max = 0.00542209352769, 0.504081494876
deltaT = 2.86648807494e-08
Time = 3.80839e-06

Calculating Fluxes
RK2SSP: step 1
Solving compressibleSystem:

RK2SSP: step 2
Solving compressibleSystem:

Post-updating compressibleSystem:

max(p): 13427272770.9, min(p): 101298
max(T): 10635.865685, min(T): 287.925643795
ExecutionTime = 0.38 s  ClockTime = 0 s

Courant Number Mean/Max = 0.0053956315137, 0.495586054408
deltaT = 2.87982057761e-08
Time = 3.83718e-06

Calculating Fluxes
RK2SSP: step 1
Solving compressibleSystem:

RK2SSP: step 2
Solving compressibleSystem:

Post-updating compressibleSystem:

max(p): 13445558852, min(p): 101298
max(T): 11021.7146702, min(T): 287.925643795
ExecutionTime = 0.39 s  ClockTime = 0 s

Courant Number Mean/Max = 0.00543394155878, 0.494500805649
deltaT = 2.90698869627e-08
Time = 3.86625e-06

Calculating Fluxes
RK2SSP: step 1
Solving compressibleSystem:

RK2SSP: step 2
Solving compressibleSystem:

Post-updating compressibleSystem:

max(p): 13461734252.6, min(p): 101298
max(T): 10780.1965286, min(T): 287.925643795
ExecutionTime = 0.4 s  ClockTime = 0 s

Courant Number Mean/Max = 0.00548859396992, 0.501171734409
deltaT = 2.89327648544e-08
Time = 3.89519e-06

Calculating Fluxes
RK2SSP: step 1
Solving compressibleSystem:

RK2SSP: step 2
Solving compressibleSystem:

Post-updating compressibleSystem:

max(p): 13475594704.8, min(p): 101298
max(T): 11415.6725113, min(T): 287.925643795
ExecutionTime = 0.4 s  ClockTime = 0 s

Courant Number Mean/Max = 0.00546574217195, 0.49372139357
deltaT = 2.92096334175e-08
Time = 3.9244e-06

Calculating Fluxes
RK2SSP: step 1
Solving compressibleSystem:

RK2SSP: step 2
Solving compressibleSystem:

Post-updating compressibleSystem:

max(p): 13487876391, min(p): 101298
max(T): 11604.5725149, min(T): 287.925643795
ExecutionTime = 0.42 s  ClockTime = 0 s

Courant Number Mean/Max = 0.00552042594021, 0.496120977834
deltaT = 2.93507427577e-08
Time = 3.95375e-06

Calculating Fluxes
RK2SSP: step 1
Solving compressibleSystem:

RK2SSP: step 2
Solving compressibleSystem:

Post-updating compressibleSystem:

max(p): 13498799074.4, min(p): 101298
max(T): 11261.0979863, min(T): 287.925643795
ExecutionTime = 0.43 s  ClockTime = 0 s

Courant Number Mean/Max = 0.00554839157082, 0.499048644288
deltaT = 2.93507427577e-08
Time = 3.9831e-06

Calculating Fluxes
RK2SSP: step 1
Solving compressibleSystem:

RK2SSP: step 2
Solving compressibleSystem:

Post-updating compressibleSystem:

max(p): 13508352352.2, min(p): 101298
max(T): 10926.4521798, min(T): 287.925643795
ExecutionTime = 0.43 s  ClockTime = 1 s

Courant Number Mean/Max = 0.00554906458301, 0.493375856106
deltaT = 2.96399126371e-08
Time = 4.01274e-06

Calculating Fluxes
RK2SSP: step 1
Solving compressibleSystem:

RK2SSP: step 2
Solving compressibleSystem:

Post-updating compressibleSystem:

max(p): 13516679263.1, min(p): 101298
max(T): 11487.382194, min(T): 287.925643795
ExecutionTime = 0.44 s  ClockTime = 1 s

Courant Number Mean/Max = 0.00560482079276, 0.49291199694
deltaT = 2.99363117635e-08
Time = 4.04267e-06

Calculating Fluxes
RK2SSP: step 1
Solving compressibleSystem:

RK2SSP: step 2
Solving compressibleSystem:

Post-updating compressibleSystem:

max(p): 13528240760.1, min(p): 101298
max(T): 11475.7925458, min(T): 287.925643795
ExecutionTime = 0.45 s  ClockTime = 1 s

Courant Number Mean/Max = 0.00566180655516, 0.497419756419
deltaT = 3.00875052572e-08
Time = 4.07276e-06

Calculating Fluxes
RK2SSP: step 1
Solving compressibleSystem:

RK2SSP: step 2
Solving compressibleSystem:

Post-updating compressibleSystem:

max(p): 13552822846.4, min(p): 101298
max(T): 11069.1442769, min(T): 287.925643795
ExecutionTime = 0.46 s  ClockTime = 1 s

Courant Number Mean/Max = 0.00569103389099, 0.494497869347
deltaT = 3.03960950548e-08
Time = 4.10316e-06

Calculating Fluxes
RK2SSP: step 1
Solving compressibleSystem:

RK2SSP: step 2
Solving compressibleSystem:

Post-updating compressibleSystem:

max(p): 13575207632.5, min(p): 101298
max(T): 10425.8040115, min(T): 287.925643795
ExecutionTime = 0.47 s  ClockTime = 1 s

Courant Number Mean/Max = 0.00574990361422, 0.491113182731
deltaT = 3.08735206315e-08
Time = 4.13403e-06

Calculating Fluxes
RK2SSP: step 1
Solving compressibleSystem:

RK2SSP: step 2
Solving compressibleSystem:

Post-updating compressibleSystem:

max(p): 13595453211.6, min(p): 101298
max(T): 11188.9794813, min(T): 287.925643795
ExecutionTime = 0.48 s  ClockTime = 1 s

Courant Number Mean/Max = 0.00584124423835, 0.488874029032
deltaT = 3.15374673118e-08
Time = 4.16557e-06

Calculating Fluxes
RK2SSP: step 1
Solving compressibleSystem:

RK2SSP: step 2
Solving compressibleSystem:

Post-updating compressibleSystem:

max(p): 13613575647.8, min(p): 101298
max(T): 11390.3180513, min(T): 287.925643795
ExecutionTime = 0.48 s  ClockTime = 1 s

Courant Number Mean/Max = 0.00596785648036, 0.489088400111
deltaT = 3.22344279154e-08
Time = 4.1978e-06

Calculating Fluxes
RK2SSP: step 1
Solving compressibleSystem:

RK2SSP: step 2
Solving compressibleSystem:

Post-updating compressibleSystem:

max(p): 13629478594.8, min(p): 101298
max(T): 11215.3366463, min(T): 287.925643795
ExecutionTime = 0.49 s  ClockTime = 1 s

Courant Number Mean/Max = 0.00610048032871, 0.489331982988
deltaT = 3.27807741512e-08
Time = 4.23058e-06

Calculating Fluxes
RK2SSP: step 1
Solving compressibleSystem:

RK2SSP: step 2
Solving compressibleSystem:

Post-updating compressibleSystem:

max(p): 13756774468.6, min(p): 101298
max(T): 10765.3895746, min(T): 287.925643795
ExecutionTime = 0.5 s  ClockTime = 1 s

Courant Number Mean/Max = 0.00620462092304, 0.486869425193
deltaT = 3.35431177361e-08
Time = 4.26413e-06

Calculating Fluxes
RK2SSP: step 1
Solving compressibleSystem:

RK2SSP: step 2
Solving compressibleSystem:

Post-updating compressibleSystem:

max(p): 13873702836.3, min(p): 101298
max(T): 10703.7461594, min(T): 287.925643795
ExecutionTime = 0.51 s  ClockTime = 1 s

Courant Number Mean/Max = 0.00635000149194, 0.487042364103
deltaT = 3.43465457058e-08
Time = 4.29847e-06

Calculating Fluxes
RK2SSP: step 1
Solving compressibleSystem:

RK2SSP: step 2
Solving compressibleSystem:

Post-updating compressibleSystem:

max(p): 13971834444.7, min(p): 101298
max(T): 11151.2868534, min(T): 287.925643795
ExecutionTime = 0.52 s  ClockTime = 1 s

Courant Number Mean/Max = 0.00650343984583, 0.487263332785
deltaT = 3.51946085628e-08
Time = 4.33367e-06

Calculating Fluxes
RK2SSP: step 1
Solving compressibleSystem:

RK2SSP: step 2
Solving compressibleSystem:

Post-updating compressibleSystem:

max(p): 14053014907.3, min(p): 101298
max(T): 11194.3302708, min(T): 287.925643795
ExecutionTime = 0.53 s  ClockTime = 1 s

Courant Number Mean/Max = 0.00666539070987, 0.487693264443
deltaT = 3.58628606241e-08
Time = 4.36953e-06

Calculating Fluxes
RK2SSP: step 1
Solving compressibleSystem:

RK2SSP: step 2
Solving compressibleSystem:

Post-updating compressibleSystem:

max(p): 14119135141, min(p): 101298
max(T): 10938.5203863, min(T): 287.925643795
ExecutionTime = 0.54 s  ClockTime = 1 s

Courant Number Mean/Max = 0.00679297616149, 0.485438602225
deltaT = 3.68004517515e-08
Time = 4.40633e-06

Calculating Fluxes
RK2SSP: step 1
Solving compressibleSystem:

RK2SSP: step 2
Solving compressibleSystem:

Post-updating compressibleSystem:

max(p): 14173250588.1, min(p): 101298
max(T): 10445.6575719, min(T): 287.925643795
ExecutionTime = 0.54 s  ClockTime = 1 s

Courant Number Mean/Max = 0.00697207097292, 0.486841859672
deltaT = 3.77950585556e-08
Time = 4.44413e-06

Calculating Fluxes
RK2SSP: step 1
Solving compressibleSystem:

RK2SSP: step 2
Solving compressibleSystem:

Post-updating compressibleSystem:

max(p): 14210586699.4, min(p): 101298
max(T): 10880.9947849, min(T): 287.925643795
ExecutionTime = 0.55 s  ClockTime = 1 s

Courant Number Mean/Max = 0.00716246789428, 0.488806913879
deltaT = 3.85824556089e-08
Time = 4.48271e-06

Calculating Fluxes
RK2SSP: step 1
Solving compressibleSystem:

RK2SSP: step 2
Solving compressibleSystem:

Post-updating compressibleSystem:

max(p): 14225421041.1, min(p): 101298
max(T): 11092.2772229, min(T): 287.925643795
ExecutionTime = 0.56 s  ClockTime = 1 s

Courant Number Mean/Max = 0.00731349601116, 0.488304069661
deltaT = 3.94092225148e-08
Time = 4.52212e-06

Calculating Fluxes
RK2SSP: step 1
Solving compressibleSystem:

RK2SSP: step 2
Solving compressibleSystem:

Post-updating compressibleSystem:

max(p): 14217817705, min(p): 101298
max(T): 10966.2744092, min(T): 287.925643795
ExecutionTime = 0.57 s  ClockTime = 1 s

Courant Number Mean/Max = 0.00747196482629, 0.488859325063
deltaT = 4.02785435997e-08
Time = 4.5624e-06

Calculating Fluxes
RK2SSP: step 1
Solving compressibleSystem:

RK2SSP: step 2
Solving compressibleSystem:

Post-updating compressibleSystem:

max(p): 14190788306.9, min(p): 101298
max(T): 10594.6902436, min(T): 287.925643795
ExecutionTime = 0.58 s  ClockTime = 1 s

Courant Number Mean/Max = 0.00763897433824, 0.490635418471
deltaT = 4.08842359846e-08
Time = 4.60328e-06

Calculating Fluxes
RK2SSP: step 1
Solving compressibleSystem:

RK2SSP: step 2
Solving compressibleSystem:

Post-updating compressibleSystem:

max(p): 14147017875.8, min(p): 101298
max(T): 10682.3602573, min(T): 287.925643795
ExecutionTime = 0.59 s  ClockTime = 1 s

Courant Number Mean/Max = 0.00775663038253, 0.490063913896
deltaT = 4.15132242305e-08
Time = 4.64479e-06

Calculating Fluxes
RK2SSP: step 1
Solving compressibleSystem:

RK2SSP: step 2
Solving compressibleSystem:

Post-updating compressibleSystem:

max(p): 14086984559.2, min(p): 101298
max(T): 10992.2244872, min(T): 287.925643795
ExecutionTime = 0.59 s  ClockTime = 1 s

Courant Number Mean/Max = 0.00787870172251, 0.490687947889
deltaT = 4.21669757932e-08
Time = 4.68696e-06

Calculating Fluxes
RK2SSP: step 1
Solving compressibleSystem:

RK2SSP: step 2
Solving compressibleSystem:

Post-updating compressibleSystem:

max(p): 14011283036.2, min(p): 101298
max(T): 10949.0133093, min(T): 287.925643795
ExecutionTime = 0.6 s  ClockTime = 1 s

Courant Number Mean/Max = 0.00800569558327, 0.492623531332
deltaT = 4.25043115996e-08
Time = 4.72947e-06

Calculating Fluxes
RK2SSP: step 1
Solving compressibleSystem:

RK2SSP: step 2
Solving compressibleSystem:

Post-updating compressibleSystem:

max(p): 13960343486.5, min(p): 101298
max(T): 10655.7352287, min(T): 287.925643795
ExecutionTime = 0.61 s  ClockTime = 1 s

Courant Number Mean/Max = 0.0080729667342, 0.49164071452
deltaT = 4.3201103593e-08
Time = 4.77267e-06

Calculating Fluxes
RK2SSP: step 1
Solving compressibleSystem:

RK2SSP: step 2
Solving compressibleSystem:

Post-updating compressibleSystem:

max(p): 13944602193.4, min(p): 101298
max(T): 10520.6225517, min(T): 287.925643795
ExecutionTime = 0.62 s  ClockTime = 1 s

Courant Number Mean/Max = 0.00820891301181, 0.495283312649
deltaT = 4.35611127896e-08
Time = 4.81623e-06

Calculating Fluxes
RK2SSP: step 1
Solving compressibleSystem:

RK2SSP: step 2
Solving compressibleSystem:

Post-updating compressibleSystem:

max(p): 13920056758.9, min(p): 101298
max(T): 10877.2213171, min(T): 287.925643795
ExecutionTime = 0.63 s  ClockTime = 1 s

Courant Number Mean/Max = 0.00828073362864, 0.495221077449
deltaT = 4.39302747624e-08
Time = 4.86016e-06

Calculating Fluxes
RK2SSP: step 1
Solving compressibleSystem:

RK2SSP: step 2
Solving compressibleSystem:

Post-updating compressibleSystem:

max(p): 13883489368.2, min(p): 101298
max(T): 10890.2322434, min(T): 287.925643795
ExecutionTime = 0.64 s  ClockTime = 1 s

Courant Number Mean/Max = 0.00835370726268, 0.495085402394
deltaT = 4.43089840276e-08
Time = 4.90447e-06

Calculating Fluxes
RK2SSP: step 1
Solving compressibleSystem:

RK2SSP: step 2
Solving compressibleSystem:

Post-updating compressibleSystem:

max(p): 13859307119.4, min(p): 101298
max(T): 10657.1700982, min(T): 287.925643795
ExecutionTime = 0.65 s  ClockTime = 1 s

Courant Number Mean/Max = 0.00842777941, 0.494617637196
deltaT = 4.46976593261e-08
Time = 4.94916e-06

Calculating Fluxes
RK2SSP: step 1
Solving compressibleSystem:

RK2SSP: step 2
Solving compressibleSystem:

Post-updating compressibleSystem:

max(p): 13856945504.8, min(p): 101298
max(T): 10494.3048429, min(T): 287.925643795
ExecutionTime = 0.65 s  ClockTime = 1 s

Courant Number Mean/Max = 0.0085039879048, 0.493697253815
deltaT = 4.50967455701e-08
Time = 4.99426e-06

Calculating Fluxes
RK2SSP: step 1
Solving compressibleSystem:

RK2SSP: step 2
Solving compressibleSystem:

Post-updating compressibleSystem:

max(p): 13845787861.8, min(p): 101298
max(T): 10855.8803779, min(T): 287.925643795
ExecutionTime = 0.66 s  ClockTime = 1 s

Courant Number Mean/Max = 0.00858192787869, 0.492208283524
deltaT = 4.55067159843e-08
Time = 5.03977e-06

Calculating Fluxes
RK2SSP: step 1
Solving compressibleSystem:

RK2SSP: step 2
Solving compressibleSystem:

Post-updating compressibleSystem:

max(p): 13823897311.4, min(p): 101298
max(T): 10898.7485513, min(T): 287.925643795
ExecutionTime = 0.67 s  ClockTime = 1 s

Courant Number Mean/Max = 0.00866163511661, 0.490127729969
deltaT = 4.63573088065e-08
Time = 5.08613e-06

Calculating Fluxes
RK2SSP: step 1
Solving compressibleSystem:

RK2SSP: step 2
Solving compressibleSystem:

Post-updating compressibleSystem:

max(p): 13788813575.6, min(p): 101298
max(T): 10710.9914393, min(T): 287.925643795
ExecutionTime = 0.68 s  ClockTime = 1 s

Courant Number Mean/Max = 0.00882481089727, 0.492071417559
deltaT = 4.67988069856e-08
Time = 5.13292e-06

Calculating Fluxes
RK2SSP: step 1
Solving compressibleSystem:

RK2SSP: step 2
Solving compressibleSystem:

Post-updating compressibleSystem:

max(p): 13738604714, min(p): 101298
max(T): 10344.3083924, min(T): 287.925643795
ExecutionTime = 0.68 s  ClockTime = 1 s

Courant Number Mean/Max = 0.0089096939074, 0.489172707831
deltaT = 4.7716430652e-08
Time = 5.18064e-06

Calculating Fluxes
RK2SSP: step 1
Solving compressibleSystem:

RK2SSP: step 2
Solving compressibleSystem:

Post-updating compressibleSystem:

max(p): 13689438661.7, min(p): 101298
max(T): 9878.48810644, min(T): 287.925643795
ExecutionTime = 0.69 s  ClockTime = 1 s

Courant Number Mean/Max = 0.00908538533957, 0.490784814095
deltaT = 4.81935949585e-08
Time = 5.22883e-06

Calculating Fluxes
RK2SSP: step 1
Solving compressibleSystem:

RK2SSP: step 2
Solving compressibleSystem:

Post-updating compressibleSystem:

max(p): 13687601080.3, min(p): 101298
max(T): 10231.9319572, min(T): 287.925643795
ExecutionTime = 0.7 s  ClockTime = 1 s

Courant Number Mean/Max = 0.00917745536669, 0.487822184342
deltaT = 4.91872773288e-08
Time = 5.27802e-06

Calculating Fluxes
RK2SSP: step 1
Solving compressibleSystem:

RK2SSP: step 2
Solving compressibleSystem:

Post-updating compressibleSystem:

max(p): 13676806798.4, min(p): 101298
max(T): 10313.7275168, min(T): 287.925643795
ExecutionTime = 0.71 s  ClockTime = 1 s

Courant Number Mean/Max = 0.00936819366876, 0.490208977688
deltaT = 4.97050381427e-08
Time = 5.32773e-06

Calculating Fluxes
RK2SSP: step 1
Solving compressibleSystem:

RK2SSP: step 2
Solving compressibleSystem:

Post-updating compressibleSystem:

max(p): 13655014149.4, min(p): 101298
max(T): 10182.2238482, min(T): 287.925643795
ExecutionTime = 0.72 s  ClockTime = 1 s

Courant Number Mean/Max = 0.00946822522302, 0.488202147173
deltaT = 5.07855824502e-08
Time = 5.37851e-06

Calculating Fluxes
RK2SSP: step 1
Solving compressibleSystem:

RK2SSP: step 2
Solving compressibleSystem:

Post-updating compressibleSystem:

max(p): 13619793568.1, min(p): 101298
max(T): 9870.37511138, min(T): 287.925643795
ExecutionTime = 0.73 s  ClockTime = 1 s

Courant Number Mean/Max = 0.00967533495356, 0.492117855662
deltaT = 5.13498666996e-08
Time = 5.42986e-06

Calculating Fluxes
RK2SSP: step 1
Solving compressibleSystem:

RK2SSP: step 2
Solving compressibleSystem:

Post-updating compressibleSystem:

max(p): 13569495609.2, min(p): 101298
max(T): 9410.71529278, min(T): 287.925643795
ExecutionTime = 0.74 s  ClockTime = 1 s

Courant Number Mean/Max = 0.00978398892601, 0.492222842536
deltaT = 5.19333879121e-08
Time = 5.4818e-06

Calculating Fluxes
RK2SSP: step 1
Solving compressibleSystem:

RK2SSP: step 2
Solving compressibleSystem:

Post-updating compressibleSystem:

max(p): 13501948706.7, min(p): 101298
max(T): 9330.25760077, min(T): 287.925643795
ExecutionTime = 0.75 s  ClockTime = 1 s

Courant Number Mean/Max = 0.00989693327714, 0.496650515859
deltaT = 5.19333879121e-08
Time = 5.53373e-06

Calculating Fluxes
RK2SSP: step 1
Solving compressibleSystem:

RK2SSP: step 2
Solving compressibleSystem:

Post-updating compressibleSystem:

max(p): 13439366788.5, min(p): 101298
max(T): 9643.64352167, min(T): 287.925643795
ExecutionTime = 0.76 s  ClockTime = 1 s

Courant Number Mean/Max = 0.00989880568534, 0.495531534284
deltaT = 5.19333879121e-08
Time = 5.58566e-06

Calculating Fluxes
RK2SSP: step 1
Solving compressibleSystem:

RK2SSP: step 2
Solving compressibleSystem:

Post-updating compressibleSystem:

max(p): 13435946742, min(p): 101298
max(T): 9713.58527191, min(T): 287.925643795
ExecutionTime = 0.76 s  ClockTime = 1 s

Courant Number Mean/Max = 0.00990067829108, 0.494462375151
deltaT = 5.19333879121e-08
Time = 5.6376e-06

Calculating Fluxes
RK2SSP: step 1
Solving compressibleSystem:

RK2SSP: step 2
Solving compressibleSystem:

Post-updating compressibleSystem:

max(p): 13424811200.3, min(p): 101298
max(T): 9610.74823558, min(T): 287.925643795
ExecutionTime = 0.77 s  ClockTime = 1 s

Courant Number Mean/Max = 0.00990236596412, 0.493443520779
deltaT = 5.2559091381e-08
Time = 5.69015e-06

Calculating Fluxes
RK2SSP: step 1
Solving compressibleSystem:

RK2SSP: step 2
Solving compressibleSystem:

Post-updating compressibleSystem:

max(p): 13404525938.1, min(p): 101298
max(T): 9372.46678055, min(T): 287.925643795
ExecutionTime = 0.78 s  ClockTime = 1 s

Courant Number Mean/Max = 0.0100233499979, 0.498396734215
deltaT = 5.2559091381e-08
Time = 5.74271e-06

Calculating Fluxes
RK2SSP: step 1
Solving compressibleSystem:

RK2SSP: step 2
Solving compressibleSystem:

Post-updating compressibleSystem:

max(p): 13374138099.4, min(p): 101298
max(T): 9026.53919613, min(T): 287.925643795
ExecutionTime = 0.79 s  ClockTime = 1 s

Courant Number Mean/Max = 0.0100249989861, 0.497456665186
deltaT = 5.2559091381e-08
Time = 5.79527e-06

Calculating Fluxes
RK2SSP: step 1
Solving compressibleSystem:

RK2SSP: step 2
Solving compressibleSystem:

Post-updating compressibleSystem:

max(p): 13332757116.8, min(p): 101298
max(T): 8600.7621198, min(T): 287.925643795
ExecutionTime = 0.8 s  ClockTime = 1 s

Courant Number Mean/Max = 0.010027030585, 0.496569341692
deltaT = 5.2559091381e-08
Time = 5.84783e-06

Calculating Fluxes
RK2SSP: step 1
Solving compressibleSystem:

RK2SSP: step 2
Solving compressibleSystem:

Post-updating compressibleSystem:

max(p): 13300488455.9, min(p): 101298
max(T): 8979.23422373, min(T): 287.925643795
ExecutionTime = 0.81 s  ClockTime = 1 s

Courant Number Mean/Max = 0.0100292446421, 0.495733315148
deltaT = 5.2559091381e-08
Time = 5.90039e-06

Calculating Fluxes
RK2SSP: step 1
Solving compressibleSystem:

RK2SSP: step 2
Solving compressibleSystem:

Post-updating compressibleSystem:

max(p): 13282663203.3, min(p): 101298
max(T): 9164.20329518, min(T): 287.925643795
ExecutionTime = 0.82 s  ClockTime = 1 s

Courant Number Mean/Max = 0.0100315477376, 0.494943652189
deltaT = 5.2559091381e-08
Time = 5.95295e-06

Calculating Fluxes
RK2SSP: step 1
Solving compressibleSystem:

RK2SSP: step 2
Solving compressibleSystem:

Post-updating compressibleSystem:

max(p): 13264580529.9, min(p): 101298
max(T): 9177.16281775, min(T): 287.925643795
ExecutionTime = 0.82 s  ClockTime = 1 s

Courant Number Mean/Max = 0.0100337986427, 0.494194167845
deltaT = 5.2559091381e-08
Time = 6.00551e-06

Calculating Fluxes
RK2SSP: step 1
Solving compressibleSystem:

RK2SSP: step 2
Solving compressibleSystem:

Post-updating compressibleSystem:

max(p): 13256338187.2, min(p): 101298
max(T): 9058.28418114, min(T): 287.925643795
ExecutionTime = 0.83 s  ClockTime = 1 s

Courant Number Mean/Max = 0.0100358847285, 0.49347780761
deltaT = 5.3259879266e-08
Time = 6.05877e-06

Calculating Fluxes
RK2SSP: step 1
Solving compressibleSystem:

RK2SSP: step 2
Solving compressibleSystem:

Post-updating compressibleSystem:

max(p): 13257765505.6, min(p): 101298
max(T): 8827.75737387, min(T): 287.925643795
ExecutionTime = 0.84 s  ClockTime = 1 s

Courant Number Mean/Max = 0.0101716207885, 0.499347977756
deltaT = 5.3259879266e-08
Time = 6.11203e-06

Calculating Fluxes
RK2SSP: step 1
Solving compressibleSystem:

RK2SSP: step 2
Solving compressibleSystem:

Post-updating compressibleSystem:

max(p): 13256797007.3, min(p): 101298
max(T): 8508.64554722, min(T): 287.925643795
ExecutionTime = 0.85 s  ClockTime = 1 s

Courant Number Mean/Max = 0.0101738675283, 0.4986571158
deltaT = 5.3259879266e-08
Time = 6.16529e-06

Calculating Fluxes
RK2SSP: step 1
Solving compressibleSystem:

RK2SSP: step 2
Solving compressibleSystem:

Post-updating compressibleSystem:

max(p): 13253545578.4, min(p): 101298
max(T): 8422.93598404, min(T): 287.925643795
ExecutionTime = 0.86 s  ClockTime = 1 s

Courant Number Mean/Max = 0.0101764060956, 0.497978256052
deltaT = 5.3259879266e-08
Time = 6.21855e-06

Calculating Fluxes
RK2SSP: step 1
Solving compressibleSystem:

RK2SSP: step 2
Solving compressibleSystem:

Post-updating compressibleSystem:

max(p): 13248145208.5, min(p): 101298
max(T): 8726.24631114, min(T): 287.925643795
ExecutionTime = 0.87 s  ClockTime = 1 s

Courant Number Mean/Max = 0.0101790714362, 0.497303393174
deltaT = 5.3259879266e-08
Time = 6.27181e-06

Calculating Fluxes
RK2SSP: step 1
Solving compressibleSystem:

RK2SSP: step 2
Solving compressibleSystem:

Post-updating compressibleSystem:

max(p): 13240755805.1, min(p): 101298
max(T): 8849.16968097, min(T): 287.925643795
ExecutionTime = 0.87 s  ClockTime = 1 s

Courant Number Mean/Max = 0.0101817885886, 0.496621992598
deltaT = 5.3259879266e-08
Time = 6.32507e-06

Calculating Fluxes
RK2SSP: step 1
Solving compressibleSystem:

RK2SSP: step 2
Solving compressibleSystem:

Post-updating compressibleSystem:

max(p): 13231542341, min(p): 101298
max(T): 8826.36017654, min(T): 287.925643795
ExecutionTime = 0.88 s  ClockTime = 1 s

Courant Number Mean/Max = 0.0101843850866, 0.495926397153
deltaT = 5.3259879266e-08
Time = 6.37833e-06

Calculating Fluxes
RK2SSP: step 1
Solving compressibleSystem:

RK2SSP: step 2
Solving compressibleSystem:

Post-updating compressibleSystem:

max(p): 13220672857.1, min(p): 101298
max(T): 8695.51742318, min(T): 287.925643795
ExecutionTime = 0.89 s  ClockTime = 1 s

Courant Number Mean/Max = 0.0101867722817, 0.495213557074
deltaT = 5.3259879266e-08
Time = 6.43159e-06

Calculating Fluxes
RK2SSP: step 1
Solving compressibleSystem:

RK2SSP: step 2
Solving compressibleSystem:

Post-updating compressibleSystem:

max(p): 13208316075.6, min(p): 101298
max(T): 8473.1043665, min(T): 287.925643795
ExecutionTime = 0.9 s  ClockTime = 1 s

Courant Number Mean/Max = 0.0101890151485, 0.494486134863
deltaT = 5.3259879266e-08
Time = 6.48485e-06

Calculating Fluxes
RK2SSP: step 1
Solving compressibleSystem:

RK2SSP: step 2
Solving compressibleSystem:

Post-updating compressibleSystem:

max(p): 13194519784.1, min(p): 101298
max(T): 8179.06595775, min(T): 287.925643795
ExecutionTime = 0.9 s  ClockTime = 1 s

Courant Number Mean/Max = 0.010191515309, 0.493749275358
deltaT = 5.3259879266e-08
Time = 6.53811e-06

Calculating Fluxes
RK2SSP: step 1
Solving compressibleSystem:

RK2SSP: step 2
Solving compressibleSystem:

Post-updating compressibleSystem:

max(p): 13179726437.4, min(p): 101298
max(T): 8265.32542805, min(T): 287.925643795
ExecutionTime = 0.91 s  ClockTime = 1 s

Courant Number Mean/Max = 0.0101943102976, 0.493008449612
deltaT = 5.3259879266e-08
Time = 6.59137e-06

Calculating Fluxes
RK2SSP: step 1
Solving compressibleSystem:

RK2SSP: step 2
Solving compressibleSystem:

Post-updating compressibleSystem:

max(p): 13164586289.8, min(p): 101298
max(T): 8516.61081594, min(T): 287.925643795
ExecutionTime = 0.92 s  ClockTime = 1 s

Courant Number Mean/Max = 0.0101971771855, 0.492269668378
deltaT = 5.3259879266e-08
Time = 6.64463e-06

Calculating Fluxes
RK2SSP: step 1
Solving compressibleSystem:

RK2SSP: step 2
Solving compressibleSystem:

Post-updating compressibleSystem:

max(p): 13149313137.5, min(p): 101298
max(T): 8610.36488685, min(T): 287.925643795
ExecutionTime = 0.93 s  ClockTime = 1 s

Courant Number Mean/Max = 0.0102000779336, 0.491538304876
deltaT = 5.41189095768e-08
Time = 6.69875e-06

Calculating Fluxes
RK2SSP: step 1
Solving compressibleSystem:

RK2SSP: step 2
Solving compressibleSystem:

Post-updating compressibleSystem:

max(p): 13133649708, min(p): 101298
max(T): 8579.94733358, min(T): 287.925643795
ExecutionTime = 0.94 s  ClockTime = 1 s

Courant Number Mean/Max = 0.010367452815, 0.498723019797
deltaT = 5.41189095768e-08
Time = 6.75287e-06

Calculating Fluxes
RK2SSP: step 1
Solving compressibleSystem:

RK2SSP: step 2
Solving compressibleSystem:

Post-updating compressibleSystem:

max(p): 13117835209.3, min(p): 101298
max(T): 8454.25947479, min(T): 287.925643795
ExecutionTime = 0.95 s  ClockTime = 1 s

Courant Number Mean/Max = 0.010370083585, 0.497995504801
deltaT = 5.41189095768e-08
Time = 6.80698e-06

Calculating Fluxes
RK2SSP: step 1
Solving compressibleSystem:

RK2SSP: step 2
Solving compressibleSystem:

Post-updating compressibleSystem:

max(p): 13246581495.1, min(p): 101298
max(T): 8249.2441597, min(T): 287.925643795
ExecutionTime = 0.95 s  ClockTime = 1 s

Courant Number Mean/Max = 0.0103726749543, 0.497288465675
deltaT = 5.41189095768e-08
Time = 6.8611e-06

Calculating Fluxes
RK2SSP: step 1
Solving compressibleSystem:

RK2SSP: step 2
Solving compressibleSystem:

Post-updating compressibleSystem:

max(p): 13398850852.3, min(p): 101298
max(T): 7982.02947971, min(T): 287.925643795
ExecutionTime = 0.96 s  ClockTime = 1 s

Courant Number Mean/Max = 0.0103755011048, 0.496604837717
deltaT = 5.41189095768e-08
Time = 6.91522e-06

Calculating Fluxes
RK2SSP: step 1
Solving compressibleSystem:

RK2SSP: step 2
Solving compressibleSystem:

Post-updating compressibleSystem:

max(p): 13543839053, min(p): 101298
max(T): 8165.19724851, min(T): 287.925643795
ExecutionTime = 0.97 s  ClockTime = 1 s

Courant Number Mean/Max = 0.0103785566369, 0.49594645479
deltaT = 5.41189095768e-08
Time = 6.96934e-06

Calculating Fluxes
RK2SSP: step 1
Solving compressibleSystem:

RK2SSP: step 2
Solving compressibleSystem:

Post-updating compressibleSystem:

max(p): 13680010788.7, min(p): 101298
max(T): 8382.8721963, min(T): 287.925643795
ExecutionTime = 0.98 s  ClockTime = 1 s

Courant Number Mean/Max = 0.0103816502514, 0.495314400714
deltaT = 5.41189095768e-08
Time = 7.02346e-06

Calculating Fluxes
RK2SSP: step 1
Solving compressibleSystem:

RK2SSP: step 2
Solving compressibleSystem:

Post-updating compressibleSystem:

max(p): 13806505830.7, min(p): 101298
max(T): 8460.15631635, min(T): 287.925643795
ExecutionTime = 0.99 s  ClockTime = 1 s

Courant Number Mean/Max = 0.010384728039, 0.494709109037
deltaT = 5.41189095768e-08
Time = 7.07758e-06

Calculating Fluxes
RK2SSP: step 1
Solving compressibleSystem:

RK2SSP: step 2
Solving compressibleSystem:

Post-updating compressibleSystem:

max(p): 13922472512.9, min(p): 101298
max(T): 8426.6932736, min(T): 287.925643795
ExecutionTime = 1 s  ClockTime = 1 s

Courant Number Mean/Max = 0.0103876320524, 0.494130315507
deltaT = 5.41189095768e-08
Time = 7.1317e-06

Calculating Fluxes
RK2SSP: step 1
Solving compressibleSystem:

RK2SSP: step 2
Solving compressibleSystem:

Post-updating compressibleSystem:

max(p): 14027358496.3, min(p): 101298
max(T): 8310.69995629, min(T): 287.925643795
ExecutionTime = 1 s  ClockTime = 1 s

Courant Number Mean/Max = 0.0103902765877, 0.493575775524
deltaT = 5.41189095768e-08
Time = 7.18582e-06

Calculating Fluxes
RK2SSP: step 1
Solving compressibleSystem:

RK2SSP: step 2
Solving compressibleSystem:

Post-updating compressibleSystem:

max(p): 14121591607.3, min(p): 101298
max(T): 8126.03803468, min(T): 287.925643795
ExecutionTime = 1.01 s  ClockTime = 1 s

Courant Number Mean/Max = 0.0103930577265, 0.493496806986
deltaT = 5.41189095768e-08
Time = 7.23994e-06

Calculating Fluxes
RK2SSP: step 1
Solving compressibleSystem:

RK2SSP: step 2
Solving compressibleSystem:

Post-updating compressibleSystem:

max(p): 14205068016.7, min(p): 101298
max(T): 7887.2628413, min(T): 287.925643795
ExecutionTime = 1.02 s  ClockTime = 1 s

Courant Number Mean/Max = 0.0103961080747, 0.49388849442
deltaT = 5.41189095768e-08
Time = 7.29405e-06

Calculating Fluxes
RK2SSP: step 1
Solving compressibleSystem:

RK2SSP: step 2
Solving compressibleSystem:

Post-updating compressibleSystem:

max(p): 14276396543.2, min(p): 101298
max(T): 8092.44811038, min(T): 287.925643795
ExecutionTime = 1.03 s  ClockTime = 1 s

Courant Number Mean/Max = 0.0103993324243, 0.494362296167
deltaT = 5.41189095768e-08
Time = 7.34817e-06

Calculating Fluxes
RK2SSP: step 1
Solving compressibleSystem:

RK2SSP: step 2
Solving compressibleSystem:

Post-updating compressibleSystem:

max(p): 14333707962.9, min(p): 101298
max(T): 8291.18784581, min(T): 287.925643795
ExecutionTime = 1.04 s  ClockTime = 1 s

Courant Number Mean/Max = 0.0104025453229, 0.494521776823
deltaT = 5.41189095768e-08
Time = 7.40229e-06

Calculating Fluxes
RK2SSP: step 1
Solving compressibleSystem:

RK2SSP: step 2
Solving compressibleSystem:

Post-updating compressibleSystem:

max(p): 14390549152.3, min(p): 101298
max(T): 8369.30691126, min(T): 287.925643795
ExecutionTime = 1.04 s  ClockTime = 1 s

Courant Number Mean/Max = 0.0104057374009, 0.494949446116
deltaT = 5.41189095768e-08
Time = 7.45641e-06

Calculating Fluxes
RK2SSP: step 1
Solving compressibleSystem:

RK2SSP: step 2
Solving compressibleSystem:

Post-updating compressibleSystem:

max(p): 14466548838.9, min(p): 101298
max(T): 8345.70661365, min(T): 287.925643795
ExecutionTime = 1.05 s  ClockTime = 1 s

Courant Number Mean/Max = 0.0104087612472, 0.495176892781
deltaT = 5.41189095768e-08
Time = 7.51053e-06

Calculating Fluxes
RK2SSP: step 1
Solving compressibleSystem:

RK2SSP: step 2
Solving compressibleSystem:

Post-updating compressibleSystem:

max(p): 14535112214, min(p): 101298
max(T): 8246.58757445, min(T): 287.925643795
ExecutionTime = 1.06 s  ClockTime = 1 s

Courant Number Mean/Max = 0.0104115522684, 0.495141402762
deltaT = 5.41189095768e-08
Time = 7.56465e-06

Calculating Fluxes
RK2SSP: step 1
Solving compressibleSystem:

RK2SSP: step 2
Solving compressibleSystem:

Post-updating compressibleSystem:

max(p): 14591598635.8, min(p): 101298
max(T): 8085.11198736, min(T): 287.925643795
ExecutionTime = 1.07 s  ClockTime = 1 s

Courant Number Mean/Max = 0.0104145598887, 0.494881603356
deltaT = 5.41189095768e-08
Time = 7.61877e-06

Calculating Fluxes
RK2SSP: step 1
Solving compressibleSystem:

RK2SSP: step 2
Solving compressibleSystem:

Post-updating compressibleSystem:

max(p): 14634815597.7, min(p): 101298
max(T): 7873.3162379, min(T): 287.925643795
ExecutionTime = 1.08 s  ClockTime = 1 s

Courant Number Mean/Max = 0.0104177272905, 0.494449922146
deltaT = 5.41189095768e-08
Time = 7.67289e-06

Calculating Fluxes
RK2SSP: step 1
Solving compressibleSystem:

RK2SSP: step 2
Solving compressibleSystem:

Post-updating compressibleSystem:

max(p): 14664274793.3, min(p): 101298
max(T): 8023.76688918, min(T): 287.925643795
ExecutionTime = 1.09 s  ClockTime = 1 s

Courant Number Mean/Max = 0.0104210052697, 0.493900617888
deltaT = 5.41189095768e-08
Time = 7.72701e-06

Calculating Fluxes
RK2SSP: step 1
Solving compressibleSystem:

RK2SSP: step 2
Solving compressibleSystem:

Post-updating compressibleSystem:

max(p): 14680637255, min(p): 101298
max(T): 8218.71507507, min(T): 287.925643795
ExecutionTime = 1.09 s  ClockTime = 1 s

Courant Number Mean/Max = 0.0104242657568, 0.493280054651
deltaT = 5.41189095768e-08
Time = 7.78112e-06

Calculating Fluxes
RK2SSP: step 1
Solving compressibleSystem:

RK2SSP: step 2
Solving compressibleSystem:

Post-updating compressibleSystem:

max(p): 14684574245.2, min(p): 101298
max(T): 8308.46022765, min(T): 287.925643795
ExecutionTime = 1.1 s  ClockTime = 1 s

Courant Number Mean/Max = 0.0104274918414, 0.492632810361
deltaT = 5.41189095768e-08
Time = 7.83524e-06

Calculating Fluxes
RK2SSP: step 1
Solving compressibleSystem:

RK2SSP: step 2
Solving compressibleSystem:

Post-updating compressibleSystem:

max(p): 14676018542.4, min(p): 101298
max(T): 8305.34077536, min(T): 287.925643795
ExecutionTime = 1.11 s  ClockTime = 1 s

Courant Number Mean/Max = 0.0104305862728, 0.491993129745
deltaT = 5.41189095768e-08
Time = 7.88936e-06

Calculating Fluxes
RK2SSP: step 1
Solving compressibleSystem:

RK2SSP: step 2
Solving compressibleSystem:

Post-updating compressibleSystem:

max(p): 14658346519.8, min(p): 101298
max(T): 8228.6593603, min(T): 287.925643795
ExecutionTime = 1.12 s  ClockTime = 1 s

Courant Number Mean/Max = 0.0104334881926, 0.491375408378
deltaT = 5.41189095768e-08
Time = 7.94348e-06

Calculating Fluxes
RK2SSP: step 1
Solving compressibleSystem:

RK2SSP: step 2
Solving compressibleSystem:

Post-updating compressibleSystem:

max(p): 14636158104.3, min(p): 101298
max(T): 8093.41898874, min(T): 287.925643795
ExecutionTime = 1.13 s  ClockTime = 1 s

Courant Number Mean/Max = 0.0104365897177, 0.490783949112
deltaT = 5.41189095768e-08
Time = 7.9976e-06

Calculating Fluxes
RK2SSP: step 1
Solving compressibleSystem:

RK2SSP: step 2
Solving compressibleSystem:

Post-updating compressibleSystem:

max(p): 14610571351.6, min(p): 101298
max(T): 7909.41713571, min(T): 287.925643795
ExecutionTime = 1.14 s  ClockTime = 1 s

Courant Number Mean/Max = 0.0104398426555, 0.490220512628
deltaT = 5.41189095768e-08
Time = 8.05172e-06

Calculating Fluxes
RK2SSP: step 1
Solving compressibleSystem:

RK2SSP: step 2
Solving compressibleSystem:

Post-updating compressibleSystem:

max(p): 14581286689.4, min(p): 101298
max(T): 7946.2960144, min(T): 287.925643795
ExecutionTime = 1.15 s  ClockTime = 1 s

Courant Number Mean/Max = 0.0104431978639, 0.489687914461
deltaT = 5.41189095768e-08
Time = 8.10584e-06

Calculating Fluxes
RK2SSP: step 1
Solving compressibleSystem:

RK2SSP: step 2
Solving compressibleSystem:

Post-updating compressibleSystem:

max(p): 14546814672, min(p): 101298
max(T): 8154.15158828, min(T): 287.925643795
ExecutionTime = 1.16 s  ClockTime = 1 s

Courant Number Mean/Max = 0.0104465310859, 0.489191565485
deltaT = 5.41189095768e-08
Time = 8.15996e-06

Calculating Fluxes
RK2SSP: step 1
Solving compressibleSystem:

RK2SSP: step 2
Solving compressibleSystem:

Post-updating compressibleSystem:

max(p): 14506051056.5, min(p): 101298
max(T): 8263.6598158, min(T): 287.925643795
ExecutionTime = 1.17 s  ClockTime = 1 s

Courant Number Mean/Max = 0.0104498034081, 0.488736255613
deltaT = 5.41189095768e-08
Time = 8.21408e-06

Calculating Fluxes
RK2SSP: step 1
Solving compressibleSystem:

RK2SSP: step 2
Solving compressibleSystem:

Post-updating compressibleSystem:

max(p): 14459032101.6, min(p): 101298
max(T): 8284.12574353, min(T): 287.925643795
ExecutionTime = 1.18 s  ClockTime = 1 s

Courant Number Mean/Max = 0.0104529600467, 0.488320807549
deltaT = 5.41189095768e-08
Time = 8.26819e-06

Calculating Fluxes
RK2SSP: step 1
Solving compressibleSystem:

RK2SSP: step 2
Solving compressibleSystem:

Post-updating compressibleSystem:

max(p): 14420468374.5, min(p): 101298
max(T): 8232.03557821, min(T): 287.925643795
ExecutionTime = 1.19 s  ClockTime = 1 s

Courant Number Mean/Max = 0.0104559244778, 0.48793928384
deltaT = 5.41189095768e-08
Time = 8.32231e-06

Calculating Fluxes
RK2SSP: step 1
Solving compressibleSystem:

RK2SSP: step 2
Solving compressibleSystem:

Post-updating compressibleSystem:

max(p): 14403245787.7, min(p): 101298
max(T): 8123.8445321, min(T): 287.925643795
ExecutionTime = 1.19 s  ClockTime = 1 s

Courant Number Mean/Max = 0.010459084528, 0.487585229255
deltaT = 5.41189095768e-08
Time = 8.37643e-06

Calculating Fluxes
RK2SSP: step 1
Solving compressibleSystem:

RK2SSP: step 2
Solving compressibleSystem:

Post-updating compressibleSystem:

max(p): 14382639059.5, min(p): 101298
max(T): 7968.015933, min(T): 287.925643795
ExecutionTime = 1.2 s  ClockTime = 1 s

Courant Number Mean/Max = 0.0104623683599, 0.4872531263
deltaT = 5.41189095768e-08
Time = 8.43055e-06

Calculating Fluxes
RK2SSP: step 1
Solving compressibleSystem:

RK2SSP: step 2
Solving compressibleSystem:

Post-updating compressibleSystem:

max(p): 14357159432.7, min(p): 101298
max(T): 7857.98266834, min(T): 287.925643795
ExecutionTime = 1.21 s  ClockTime = 1 s

Courant Number Mean/Max = 0.0104657524603, 0.486938842802
deltaT = 5.41189095768e-08
Time = 8.48467e-06

Calculating Fluxes
RK2SSP: step 1
Solving compressibleSystem:

RK2SSP: step 2
Solving compressibleSystem:

Post-updating compressibleSystem:

max(p): 14325638412.7, min(p): 101298
max(T): 8087.13975037, min(T): 287.925643795
ExecutionTime = 1.22 s  ClockTime = 1 s

Courant Number Mean/Max = 0.0104691240164, 0.486638519744
deltaT = 5.41189095768e-08
Time = 8.53879e-06

Calculating Fluxes
RK2SSP: step 1
Solving compressibleSystem:

RK2SSP: step 2
Solving compressibleSystem:

Post-updating compressibleSystem:

max(p): 14286939112.5, min(p): 101298
max(T): 8222.01699235, min(T): 287.925643795
ExecutionTime = 1.23 s  ClockTime = 1 s

Courant Number Mean/Max = 0.0104724126726, 0.486348031456
deltaT = 5.41189095768e-08
Time = 8.59291e-06

Calculating Fluxes
RK2SSP: step 1
Solving compressibleSystem:

RK2SSP: step 2
Solving compressibleSystem:

Post-updating compressibleSystem:

max(p): 14241044498.4, min(p): 101298
max(T): 8271.0084904, min(T): 287.925643795
ExecutionTime = 1.24 s  ClockTime = 1 s

Courant Number Mean/Max = 0.010475614324, 0.486062802028
deltaT = 5.41189095768e-08
Time = 8.64703e-06

Calculating Fluxes
RK2SSP: step 1
Solving compressibleSystem:

RK2SSP: step 2
Solving compressibleSystem:

Post-updating compressibleSystem:

max(p): 14188678092.9, min(p): 101298
max(T): 8247.17878004, min(T): 287.925643795
ExecutionTime = 1.25 s  ClockTime = 1 s

Courant Number Mean/Max = 0.0104786350636, 0.48577916374
deltaT = 5.41189095768e-08
Time = 8.70115e-06

Calculating Fluxes
RK2SSP: step 1
Solving compressibleSystem:

RK2SSP: step 2
Solving compressibleSystem:

Post-updating compressibleSystem:

max(p): 14137652857.2, min(p): 101298
max(T): 8167.20262557, min(T): 287.925643795
ExecutionTime = 1.25 s  ClockTime = 1 s

Courant Number Mean/Max = 0.0104818082427, 0.485493111762
deltaT = 5.41189095768e-08
Time = 8.75527e-06

Calculating Fluxes
RK2SSP: step 1
Solving compressibleSystem:

RK2SSP: step 2
Solving compressibleSystem:

Post-updating compressibleSystem:

max(p): 14112847147.2, min(p): 101298
max(T): 8039.78442605, min(T): 287.925643795
ExecutionTime = 1.26 s  ClockTime = 1 s

Courant Number Mean/Max = 0.0104850988404, 0.485201159701
deltaT = 5.41189095768e-08
Time = 8.80938e-06

Calculating Fluxes
RK2SSP: step 1
Solving compressibleSystem:

RK2SSP: step 2
Solving compressibleSystem:

Post-updating compressibleSystem:

max(p): 14081629344.7, min(p): 101298
max(T): 7872.08897296, min(T): 287.925643795
ExecutionTime = 1.27 s  ClockTime = 1 s

Courant Number Mean/Max = 0.0104885050522, 0.484901313819
deltaT = 5.41189095768e-08
Time = 8.8635e-06

Calculating Fluxes
RK2SSP: step 1
Solving compressibleSystem:

RK2SSP: step 2
Solving compressibleSystem:

Post-updating compressibleSystem:

max(p): 14044038952.2, min(p): 101298
max(T): 8006.81577571, min(T): 287.925643795
ExecutionTime = 1.27 s  ClockTime = 1 s

Courant Number Mean/Max = 0.010491927563, 0.484592365424
deltaT = 5.41189095768e-08
Time = 8.91762e-06

Calculating Fluxes
RK2SSP: step 1
Solving compressibleSystem:

RK2SSP: step 2
Solving compressibleSystem:

Post-updating compressibleSystem:

max(p): 14001252411.7, min(p): 101298
max(T): 8172.36750866, min(T): 287.925643795
ExecutionTime = 1.28 s  ClockTime = 1 s

Courant Number Mean/Max = 0.0104952774422, 0.484273410193
deltaT = 5.41189095768e-08
Time = 8.97174e-06

Calculating Fluxes
RK2SSP: step 1
Solving compressibleSystem:

RK2SSP: step 2
Solving compressibleSystem:

Post-updating compressibleSystem:

max(p): 13953515061.6, min(p): 101298
max(T): 8254.46752008, min(T): 287.925643795
ExecutionTime = 1.29 s  ClockTime = 1 s

Courant Number Mean/Max = 0.0104985207893, 0.483944308747
deltaT = 5.41189095768e-08
Time = 9.02586e-06

Calculating Fluxes
RK2SSP: step 1
Solving compressibleSystem:

RK2SSP: step 2
Solving compressibleSystem:

Post-updating compressibleSystem:

max(p): 13901130564.7, min(p): 101298
max(T): 8263.03337556, min(T): 287.925643795
ExecutionTime = 1.3 s  ClockTime = 1 s

Courant Number Mean/Max = 0.0105016137711, 0.483606596344
deltaT = 5.41189095768e-08
Time = 9.07998e-06

Calculating Fluxes
RK2SSP: step 1
Solving compressibleSystem:

RK2SSP: step 2
Solving compressibleSystem:

Post-updating compressibleSystem:

max(p): 13844207763.4, min(p): 101298
max(T): 8212.71335293, min(T): 287.925643795
ExecutionTime = 1.31 s  ClockTime = 1 s

Courant Number Mean/Max = 0.0105047839914, 0.483263313924
deltaT = 5.41189095768e-08
Time = 9.1341e-06

Calculating Fluxes
RK2SSP: step 1
Solving compressibleSystem:

RK2SSP: step 2
Solving compressibleSystem:

Post-updating compressibleSystem:

max(p): 13795932004.9, min(p): 101298
max(T): 8114.8524412, min(T): 287.925643795
ExecutionTime = 1.32 s  ClockTime = 1 s

Courant Number Mean/Max = 0.0105080906602, 0.482917959467
deltaT = 5.41189095768e-08
Time = 9.18822e-06

Calculating Fluxes
RK2SSP: step 1
Solving compressibleSystem:

RK2SSP: step 2
Solving compressibleSystem:

Post-updating compressibleSystem:

max(p): 13761875189.5, min(p): 101298
max(T): 7975.60736711, min(T): 287.925643795
ExecutionTime = 1.33 s  ClockTime = 1 s

Courant Number Mean/Max = 0.0105115427599, 0.482573248905
deltaT = 5.41189095768e-08
Time = 9.24234e-06

Calculating Fluxes
RK2SSP: step 1
Solving compressibleSystem:

RK2SSP: step 2
Solving compressibleSystem:

Post-updating compressibleSystem:

max(p): 13722305916.5, min(p): 101298
max(T): 7908.22317357, min(T): 287.925643795
ExecutionTime = 1.33 s  ClockTime = 1 s

Courant Number Mean/Max = 0.0105150490595, 0.482231599899
deltaT = 5.41189095768e-08
Time = 9.29645e-06

Calculating Fluxes
RK2SSP: step 1
Solving compressibleSystem:

RK2SSP: step 2
Solving compressibleSystem:

Post-updating compressibleSystem:

max(p): 13677664228.2, min(p): 101298
max(T): 8108.52892283, min(T): 287.925643795
ExecutionTime = 1.34 s  ClockTime = 1 s

Courant Number Mean/Max = 0.0105185105624, 0.481895019948
deltaT = 5.41189095768e-08
Time = 9.35057e-06

Calculating Fluxes
RK2SSP: step 1
Solving compressibleSystem:

RK2SSP: step 2
Solving compressibleSystem:

Post-updating compressibleSystem:

max(p): 13628297891.8, min(p): 101298
max(T): 8228.25548653, min(T): 287.925643795
ExecutionTime = 1.35 s  ClockTime = 1 s

Courant Number Mean/Max = 0.010521854508, 0.481565818731
deltaT = 5.41189095768e-08
Time = 9.40469e-06

Calculating Fluxes
RK2SSP: step 1
Solving compressibleSystem:

RK2SSP: step 2
Solving compressibleSystem:

Post-updating compressibleSystem:

max(p): 13575604710.2, min(p): 101298
max(T): 8271.52863014, min(T): 287.925643795
ExecutionTime = 1.35 s  ClockTime = 1 s

Courant Number Mean/Max = 0.0105250887705, 0.481245761081
deltaT = 5.41189095768e-08
Time = 9.45881e-06

Calculating Fluxes
RK2SSP: step 1
Solving compressibleSystem:

RK2SSP: step 2
Solving compressibleSystem:

Post-updating compressibleSystem:

max(p): 13519973714, min(p): 101298
max(T): 8252.85139466, min(T): 287.925643795
ExecutionTime = 1.36 s  ClockTime = 1 s

Courant Number Mean/Max = 0.0105282765899, 0.48093540882
deltaT = 5.41189095768e-08
Time = 9.51293e-06

Calculating Fluxes
RK2SSP: step 1
Solving compressibleSystem:

RK2SSP: step 2
Solving compressibleSystem:

Post-updating compressibleSystem:

max(p): 13460178708.6, min(p): 101298
max(T): 8185.71939734, min(T): 287.925643795
ExecutionTime = 1.38 s  ClockTime = 1 s

Courant Number Mean/Max = 0.010531671271, 0.480634657195
deltaT = 5.41189095768e-08
Time = 9.56705e-06

Calculating Fluxes
RK2SSP: step 1
Solving compressibleSystem:

RK2SSP: step 2
Solving compressibleSystem:

Post-updating compressibleSystem:

max(p): 13395678593.3, min(p): 101298
max(T): 8076.20317903, min(T): 287.925643795
ExecutionTime = 1.38 s  ClockTime = 1 s

Courant Number Mean/Max = 0.0105351947478, 0.480342940046
deltaT = 5.41189095768e-08
Time = 9.62117e-06

Calculating Fluxes
RK2SSP: step 1
Solving compressibleSystem:

RK2SSP: step 2
Solving compressibleSystem:

Post-updating compressibleSystem:

max(p): 13326116829.8, min(p): 101298
max(T): 7929.7475746, min(T): 287.925643795
ExecutionTime = 1.39 s  ClockTime = 1 s

Courant Number Mean/Max = 0.010538811812, 0.480059436491
deltaT = 5.41189095768e-08
Time = 9.67529e-06

Calculating Fluxes
RK2SSP: step 1
Solving compressibleSystem:

RK2SSP: step 2
Solving compressibleSystem:

Post-updating compressibleSystem:

max(p): 13263617697.9, min(p): 101298
max(T): 8029.79124451, min(T): 287.925643795
ExecutionTime = 1.4 s  ClockTime = 1 s

Courant Number Mean/Max = 0.0105424289422, 0.479783282908
deltaT = 5.41189095768e-08
Time = 9.72941e-06

Calculating Fluxes
RK2SSP: step 1
Solving compressibleSystem:

RK2SSP: step 2
Solving compressibleSystem:

Post-updating compressibleSystem:

max(p): 13208230269.9, min(p): 101298
max(T): 8187.39330799, min(T): 287.925643795
ExecutionTime = 1.41 s  ClockTime = 1 s

Courant Number Mean/Max = 0.0105459640199, 0.479513371317
deltaT = 5.41189095768e-08
Time = 9.78352e-06

Calculating Fluxes
RK2SSP: step 1
Solving compressibleSystem:

RK2SSP: step 2
Solving compressibleSystem:

Post-updating compressibleSystem:

max(p): 13151297225, min(p): 101298
max(T): 8270.5495854, min(T): 287.925643795
ExecutionTime = 1.41 s  ClockTime = 1 s

Courant Number Mean/Max = 0.0105493787606, 0.479678886127
deltaT = 5.41189095768e-08
Time = 9.83764e-06

Calculating Fluxes
RK2SSP: step 1
Solving compressibleSystem:

RK2SSP: step 2
Solving compressibleSystem:

Post-updating compressibleSystem:

max(p): 13092602216.7, min(p): 101298
max(T): 8284.70643896, min(T): 287.925643795
ExecutionTime = 1.42 s  ClockTime = 1 s

Courant Number Mean/Max = 0.0105526364755, 0.480327633955
deltaT = 5.41189095768e-08
Time = 9.89176e-06

Calculating Fluxes
RK2SSP: step 1
Solving compressibleSystem:

RK2SSP: step 2
Solving compressibleSystem:

Post-updating compressibleSystem:

max(p): 13030813968.9, min(p): 101298
max(T): 8246.71752895, min(T): 287.925643795
ExecutionTime = 1.44 s  ClockTime = 2 s

Courant Number Mean/Max = 0.0105561599983, 0.481057398575
deltaT = 5.41189095768e-08
Time = 9.94588e-06

Calculating Fluxes
RK2SSP: step 1
Solving compressibleSystem:

RK2SSP: step 2
Solving compressibleSystem:

Post-updating compressibleSystem:

max(p): 12965610122.6, min(p): 101298
max(T): 8167.51471742, min(T): 287.925643795
ExecutionTime = 1.44 s  ClockTime = 2 s

Courant Number Mean/Max = 0.0105597724389, 0.481864636062
deltaT = 5.41189095768e-08
Time = 1e-05

Calculating Fluxes
RK2SSP: step 1
Solving compressibleSystem:

RK2SSP: step 2
Solving compressibleSystem:

Post-updating compressibleSystem:

max(p): 12896605929.9, min(p): 101298
max(T): 8050.05844233, min(T): 287.925643795
ExecutionTime = 1.45 s  ClockTime = 2 s

Courant Number Mean/Max = 0.0105635063613, 0.482745328091
deltaT = 5.58659217877e-08
Time = 1.00559e-05

Calculating Fluxes
RK2SSP: step 1
Solving compressibleSystem:

RK2SSP: step 2
Solving compressibleSystem:

Post-updating compressibleSystem:

max(p): 12821142750.8, min(p): 101298
max(T): 7931.65125701, min(T): 287.925643795
ExecutionTime = 1.46 s  ClockTime = 2 s

Courant Number Mean/Max = 0.0109085576259, 0.499342589655
deltaT = 5.58659217877e-08
Time = 1.01117e-05

Calculating Fluxes
RK2SSP: step 1
Solving compressibleSystem:

RK2SSP: step 2
Solving compressibleSystem:

Post-updating compressibleSystem:

max(p): 12744832825.2, min(p): 101298
max(T): 8132.18220733, min(T): 287.925643795
ExecutionTime = 1.46 s  ClockTime = 2 s

Courant Number Mean/Max = 0.0109125562644, 0.500427870336
deltaT = 5.55520682945e-08
Time = 1.01673e-05

Calculating Fluxes
RK2SSP: step 1
Solving compressibleSystem:

RK2SSP: step 2
Solving compressibleSystem:

Post-updating compressibleSystem:

max(p): 12686505305.2, min(p): 101298
max(T): 8254.27723618, min(T): 287.925643795
ExecutionTime = 1.47 s  ClockTime = 2 s

Courant Number Mean/Max = 0.010855094219, 0.498755364247
deltaT = 5.55520682945e-08
Time = 1.02228e-05

Calculating Fluxes
RK2SSP: step 1
Solving compressibleSystem:

RK2SSP: step 2
Solving compressibleSystem:

Post-updating compressibleSystem:

max(p): 12628098950.4, min(p): 101298
max(T): 8303.73411351, min(T): 287.925643795
ExecutionTime = 1.48 s  ClockTime = 2 s

Courant Number Mean/Max = 0.0108588049725, 0.499953764566
deltaT = 5.55520682945e-08
Time = 1.02784e-05

Calculating Fluxes
RK2SSP: step 1
Solving compressibleSystem:

RK2SSP: step 2
Solving compressibleSystem:

Post-updating compressibleSystem:

max(p): 12569104639.5, min(p): 101298
max(T): 8291.84513831, min(T): 287.925643795
ExecutionTime = 1.49 s  ClockTime = 2 s

Courant Number Mean/Max = 0.0108626235554, 0.50120392961
deltaT = 5.52364315428e-08
Time = 1.03336e-05

Calculating Fluxes
RK2SSP: step 1
Solving compressibleSystem:

RK2SSP: step 2
Solving compressibleSystem:

Post-updating compressibleSystem:

max(p): 12508180681.5, min(p): 101298
max(T): 8234.48140545, min(T): 287.925643795
ExecutionTime = 1.49 s  ClockTime = 2 s

Courant Number Mean/Max = 0.0108048525551, 0.499634857079
deltaT = 5.52364315428e-08
Time = 1.03889e-05

Calculating Fluxes
RK2SSP: step 1
Solving compressibleSystem:

RK2SSP: step 2
Solving compressibleSystem:

Post-updating compressibleSystem:

max(p): 12444574563.2, min(p): 101298
max(T): 8138.40453326, min(T): 287.925643795
ExecutionTime = 1.5 s  ClockTime = 2 s

Courant Number Mean/Max = 0.0108089484607, 0.500945430698
deltaT = 5.49207947912e-08
Time = 1.04438e-05

Calculating Fluxes
RK2SSP: step 1
Solving compressibleSystem:

RK2SSP: step 2
Solving compressibleSystem:

Post-updating compressibleSystem:

max(p): 12381558275.4, min(p): 101298
max(T): 8007.47000511, min(T): 287.925643795
ExecutionTime = 1.51 s  ClockTime = 2 s

Courant Number Mean/Max = 0.0107512939219, 0.499399904686
deltaT = 5.49207947912e-08
Time = 1.04987e-05

Calculating Fluxes
RK2SSP: step 1
Solving compressibleSystem:

RK2SSP: step 2
Solving compressibleSystem:

Post-updating compressibleSystem:

max(p): 12333923651.8, min(p): 101298
max(T): 8079.42504207, min(T): 287.925643795
ExecutionTime = 1.52 s  ClockTime = 2 s

Courant Number Mean/Max = 0.0107553715225, 0.50072901908
deltaT = 5.46051580395e-08
Time = 1.05533e-05

Calculating Fluxes
RK2SSP: step 1
Solving compressibleSystem:

RK2SSP: step 2
Solving compressibleSystem:

Post-updating compressibleSystem:

max(p): 12284712430.2, min(p): 101298
max(T): 8231.15343448, min(T): 287.925643795
ExecutionTime = 1.52 s  ClockTime = 2 s

Courant Number Mean/Max = 0.0106974820196, 0.499170107928
deltaT = 5.46051580395e-08
Time = 1.06079e-05

Calculating Fluxes
RK2SSP: step 1
Solving compressibleSystem:

RK2SSP: step 2
Solving compressibleSystem:

Post-updating compressibleSystem:

max(p): 12234048202.7, min(p): 101298
max(T): 8313.67421162, min(T): 287.925643795
ExecutionTime = 1.53 s  ClockTime = 2 s

Courant Number Mean/Max = 0.0107012785731, 0.500489143081
deltaT = 5.42895212878e-08
Time = 1.06622e-05

Calculating Fluxes
RK2SSP: step 1
Solving compressibleSystem:

RK2SSP: step 2
Solving compressibleSystem:

Post-updating compressibleSystem:

max(p): 12183499964.2, min(p): 101298
max(T): 8332.85348806, min(T): 287.925643795
ExecutionTime = 1.54 s  ClockTime = 2 s

Courant Number Mean/Max = 0.0106431296121, 0.498894895545
deltaT = 5.42895212878e-08
Time = 1.07165e-05

Calculating Fluxes
RK2SSP: step 1
Solving compressibleSystem:

RK2SSP: step 2
Solving compressibleSystem:

Post-updating compressibleSystem:

max(p): 12132476139.5, min(p): 101298
max(T): 8302.02860971, min(T): 287.925643795
ExecutionTime = 1.54 s  ClockTime = 2 s

Courant Number Mean/Max = 0.0106470752689, 0.500181283708
deltaT = 5.39738845362e-08
Time = 1.07705e-05

Calculating Fluxes
RK2SSP: step 1
Solving compressibleSystem:

RK2SSP: step 2
Solving compressibleSystem:

Post-updating compressibleSystem:

max(p): 12093187632.3, min(p): 101298
max(T): 8234.32342066, min(T): 287.925643795
ExecutionTime = 1.55 s  ClockTime = 2 s

Courant Number Mean/Max = 0.0105891638686, 0.498523204891
deltaT = 5.39738845362e-08
Time = 1.08244e-05

Calculating Fluxes
RK2SSP: step 1
Solving compressibleSystem:

RK2SSP: step 2
Solving compressibleSystem:

Post-updating compressibleSystem:

max(p): 12059549653.5, min(p): 101298
max(T): 8132.69752689, min(T): 287.925643795
ExecutionTime = 1.56 s  ClockTime = 2 s

Courant Number Mean/Max = 0.0105932574037, 0.499740085685
deltaT = 5.39738845362e-08
Time = 1.08784e-05

Calculating Fluxes
RK2SSP: step 1
Solving compressibleSystem:

RK2SSP: step 2
Solving compressibleSystem:

Post-updating compressibleSystem:

max(p): 12023411032.9, min(p): 101298
max(T): 7999.75033495, min(T): 287.925643795
ExecutionTime = 1.57 s  ClockTime = 2 s

Courant Number Mean/Max = 0.0105973649371, 0.500910341353
deltaT = 5.36563910977e-08
Time = 1.09321e-05

Calculating Fluxes
RK2SSP: step 1
Solving compressibleSystem:

RK2SSP: step 2
Solving compressibleSystem:

Post-updating compressibleSystem:

max(p): 11985390837.2, min(p): 101298
max(T): 8165.63605407, min(T): 287.925643795
ExecutionTime = 1.58 s  ClockTime = 2 s

Courant Number Mean/Max = 0.0105390093528, 0.499061652248
deltaT = 5.36563910977e-08
Time = 1.09857e-05

Calculating Fluxes
RK2SSP: step 1
Solving compressibleSystem:

RK2SSP: step 2
Solving compressibleSystem:

Post-updating compressibleSystem:

max(p): 11945562587.9, min(p): 101298
max(T): 8290.1411143, min(T): 287.925643795
ExecutionTime = 1.58 s  ClockTime = 2 s

Courant Number Mean/Max = 0.0105428434612, 0.50009063707
deltaT = 5.33388976593e-08
Time = 1.10391e-05

Calculating Fluxes
RK2SSP: step 1
Solving compressibleSystem:

RK2SSP: step 2
Solving compressibleSystem:

Post-updating compressibleSystem:

max(p): 11904535827.8, min(p): 101298
max(T): 8351.75697926, min(T): 287.925643795
ExecutionTime = 1.59 s  ClockTime = 2 s

Courant Number Mean/Max = 0.0104841021993, 0.498071160134
deltaT = 5.33388976593e-08
Time = 1.10924e-05

Calculating Fluxes
RK2SSP: step 1
Solving compressibleSystem:

RK2SSP: step 2
Solving compressibleSystem:

Post-updating compressibleSystem:

max(p): 11862298264.7, min(p): 101298
max(T): 8357.65033276, min(T): 287.925643795
ExecutionTime = 1.61 s  ClockTime = 2 s

Courant Number Mean/Max = 0.0104879270771, 0.498926996644
deltaT = 5.33388976593e-08
Time = 1.11457e-05

Calculating Fluxes
RK2SSP: step 1
Solving compressibleSystem:

RK2SSP: step 2
Solving compressibleSystem:

Post-updating compressibleSystem:

max(p): 11843481751.6, min(p): 101298
max(T): 8319.90092765, min(T): 287.925643795
ExecutionTime = 1.61 s  ClockTime = 2 s

Courant Number Mean/Max = 0.0104918805847, 0.499694738742
deltaT = 5.33388976593e-08
Time = 1.11991e-05

Calculating Fluxes
RK2SSP: step 1
Solving compressibleSystem:

RK2SSP: step 2
Solving compressibleSystem:

Post-updating compressibleSystem:

max(p): 11820609703.2, min(p): 101298
max(T): 8249.49017561, min(T): 287.925643795
ExecutionTime = 1.62 s  ClockTime = 2 s

Courant Number Mean/Max = 0.0104959195825, 0.500373131022
deltaT = 5.30175789987e-08
Time = 1.12521e-05

Calculating Fluxes
RK2SSP: step 1
Solving compressibleSystem:

RK2SSP: step 2
Solving compressibleSystem:

Post-updating compressibleSystem:

max(p): 11795063236.1, min(p): 101298
max(T): 8148.6557106, min(T): 287.925643795
ExecutionTime = 1.63 s  ClockTime = 2 s

Courant Number Mean/Max = 0.0104367263139, 0.497942477583
deltaT = 5.30175789987e-08
Time = 1.13051e-05

Calculating Fluxes
RK2SSP: step 1
Solving compressibleSystem:

RK2SSP: step 2
Solving compressibleSystem:

Post-updating compressibleSystem:

max(p): 11767070562.3, min(p): 101298
max(T): 8055.08253714, min(T): 287.925643795
ExecutionTime = 1.64 s  ClockTime = 2 s

Courant Number Mean/Max = 0.0104407467271, 0.498442012457
deltaT = 5.30175789987e-08
Time = 1.13581e-05

Calculating Fluxes
RK2SSP: step 1
Solving compressibleSystem:

RK2SSP: step 2
Solving compressibleSystem:

Post-updating compressibleSystem:

max(p): 11736892315.2, min(p): 101298
max(T): 8227.41092519, min(T): 287.925643795
ExecutionTime = 1.64 s  ClockTime = 2 s

Courant Number Mean/Max = 0.0104446612394, 0.498859825148
deltaT = 5.30175789987e-08
Time = 1.14112e-05

Calculating Fluxes
RK2SSP: step 1
Solving compressibleSystem:

RK2SSP: step 2
Solving compressibleSystem:

Post-updating compressibleSystem:

max(p): 11704781599.7, min(p): 101298
max(T): 8337.65197197, min(T): 287.925643795
ExecutionTime = 1.65 s  ClockTime = 2 s

Courant Number Mean/Max = 0.0104484121287, 0.499199108068
deltaT = 5.30175789987e-08
Time = 1.14642e-05

Calculating Fluxes
RK2SSP: step 1
Solving compressibleSystem:

RK2SSP: step 2
Solving compressibleSystem:

Post-updating compressibleSystem:

max(p): 11670888388.7, min(p): 101298
max(T): 8390.15552243, min(T): 287.925643795
ExecutionTime = 1.66 s  ClockTime = 2 s

Courant Number Mean/Max = 0.01045203501, 0.499463623907
deltaT = 5.30175789987e-08
Time = 1.15172e-05

Calculating Fluxes
RK2SSP: step 1
Solving compressibleSystem:

RK2SSP: step 2
Solving compressibleSystem:

Post-updating compressibleSystem:

max(p): 11649251841.1, min(p): 101298
max(T): 8391.13081666, min(T): 287.925643795
ExecutionTime = 1.66 s  ClockTime = 2 s

Courant Number Mean/Max = 0.0104559429242, 0.499657489891
deltaT = 5.30175789987e-08
Time = 1.15702e-05

Calculating Fluxes
RK2SSP: step 1
Solving compressibleSystem:

RK2SSP: step 2
Solving compressibleSystem:

Post-updating compressibleSystem:

max(p): 11635135069.3, min(p): 101298
max(T): 8352.04614635, min(T): 287.925643795
ExecutionTime = 1.67 s  ClockTime = 2 s

Courant Number Mean/Max = 0.0104599463636, 0.499785086821
deltaT = 5.30175789987e-08
Time = 1.16232e-05

Calculating Fluxes
RK2SSP: step 1
Solving compressibleSystem:

RK2SSP: step 2
Solving compressibleSystem:

Post-updating compressibleSystem:

max(p): 11617347953.1, min(p): 101298
max(T): 8282.18465536, min(T): 287.925643795
ExecutionTime = 1.68 s  ClockTime = 2 s

Courant Number Mean/Max = 0.010464018402, 0.499850882414
deltaT = 5.30175789987e-08
Time = 1.16762e-05

Calculating Fluxes
RK2SSP: step 1
Solving compressibleSystem:

RK2SSP: step 2
Solving compressibleSystem:

Post-updating compressibleSystem:

max(p): 11596914475.4, min(p): 101298
max(T): 8183.12274237, min(T): 287.925643795
ExecutionTime = 1.69 s  ClockTime = 2 s

Courant Number Mean/Max = 0.0104681231177, 0.499859342023
deltaT = 5.30175789987e-08
Time = 1.17293e-05

Calculating Fluxes
RK2SSP: step 1
Solving compressibleSystem:

RK2SSP: step 2
Solving compressibleSystem:

Post-updating compressibleSystem:

max(p): 11574082908.1, min(p): 101298
max(T): 8116.78138944, min(T): 287.925643795
ExecutionTime = 1.69 s  ClockTime = 2 s

Courant Number Mean/Max = 0.0104721750793, 0.49981490269
deltaT = 5.30175789987e-08
Time = 1.17823e-05

Calculating Fluxes
RK2SSP: step 1
Solving compressibleSystem:

RK2SSP: step 2
Solving compressibleSystem:

Post-updating compressibleSystem:

max(p): 11549034773.1, min(p): 101298
max(T): 8278.17947843, min(T): 287.925643795
ExecutionTime = 1.71 s  ClockTime = 2 s

Courant Number Mean/Max = 0.0104760946633, 0.499721811325
deltaT = 5.30175789987e-08
Time = 1.18353e-05

Calculating Fluxes
RK2SSP: step 1
Solving compressibleSystem:

RK2SSP: step 2
Solving compressibleSystem:

Post-updating compressibleSystem:

max(p): 11522035630, min(p): 101298
max(T): 8380.37799371, min(T): 287.925643795
ExecutionTime = 1.71 s  ClockTime = 2 s

Courant Number Mean/Max = 0.0104798446784, 0.499584042149
deltaT = 5.30175789987e-08
Time = 1.18883e-05

Calculating Fluxes
RK2SSP: step 1
Solving compressibleSystem:

RK2SSP: step 2
Solving compressibleSystem:

[...]
RK2SSP: step 1
Solving compressibleSystem:

RK2SSP: step 2
Solving compressibleSystem:

Post-updating compressibleSystem:

max(p): 60089116.9908, min(p): 101298
max(T): 8626.74789974, min(T): 287.925643795
ExecutionTime = 10.01 s  ClockTime = 10 s

Courant Number Mean/Max = 0.0578019367883, 0.494265924738
deltaT = 1.09295984713e-07
Time = 9.42073e-05

Calculating Fluxes
RK2SSP: step 1
Solving compressibleSystem:

RK2SSP: step 2
Solving compressibleSystem:

Post-updating compressibleSystem:

max(p): 59863001.5644, min(p): 101298
max(T): 8628.66858024, min(T): 287.925643795
ExecutionTime = 10.02 s  ClockTime = 10 s

Courant Number Mean/Max = 0.0578812780151, 0.493800523196
deltaT = 1.09295984713e-07
Time = 9.43166e-05

Calculating Fluxes
RK2SSP: step 1
Solving compressibleSystem:

RK2SSP: step 2
Solving compressibleSystem:

Post-updating compressibleSystem:

max(p): 59637397.7235, min(p): 101298
max(T): 8626.92767705, min(T): 287.925643795
ExecutionTime = 10.03 s  ClockTime = 10 s

Courant Number Mean/Max = 0.0579649989146, 0.493336139436
deltaT = 1.09295984713e-07
Time = 9.44259e-05

Calculating Fluxes
RK2SSP: step 1
Solving compressibleSystem:

RK2SSP: step 2
Solving compressibleSystem:

Post-updating compressibleSystem:

max(p): 59412280.8702, min(p): 101298
max(T): 8621.44379668, min(T): 287.925643795
ExecutionTime = 10.04 s  ClockTime = 10 s

Courant Number Mean/Max = 0.058052729491, 0.492872778475
deltaT = 1.09295984713e-07
Time = 9.45352e-05

Calculating Fluxes
RK2SSP: step 1
Solving compressibleSystem:

RK2SSP: step 2
Solving compressibleSystem:

Post-updating compressibleSystem:

max(p): 59187657.8164, min(p): 101298
max(T): 8612.13740398, min(T): 287.925643795
ExecutionTime = 10.04 s  ClockTime = 10 s

Courant Number Mean/Max = 0.0581400803675, 0.492410454406
deltaT = 1.09295984713e-07
Time = 9.46445e-05

Calculating Fluxes
RK2SSP: step 1
Solving compressibleSystem:

RK2SSP: step 2
Solving compressibleSystem:

Post-updating compressibleSystem:

max(p): 58967922.8997, min(p): 101298
max(T): 8609.39644306, min(T): 287.925643795
ExecutionTime = 10.05 s  ClockTime = 10 s

Courant Number Mean/Max = 0.0582236697491, 0.491949171747
deltaT = 1.09295984713e-07
Time = 9.47538e-05

Calculating Fluxes
RK2SSP: step 1
Solving compressibleSystem:

RK2SSP: step 2
Solving compressibleSystem:

Post-updating compressibleSystem:

max(p): 58748755.1598, min(p): 101298
max(T): 8610.67951783, min(T): 287.925643795
ExecutionTime = 10.06 s  ClockTime = 10 s

Courant Number Mean/Max = 0.0583035428732, 0.491488925666
deltaT = 1.09295984713e-07
Time = 9.48631e-05

Calculating Fluxes
RK2SSP: step 1
Solving compressibleSystem:

RK2SSP: step 2
Solving compressibleSystem:

Post-updating compressibleSystem:

max(p): 58530115.818, min(p): 101298
max(T): 8608.34466986, min(T): 287.925643795
ExecutionTime = 10.07 s  ClockTime = 10 s

Courant Number Mean/Max = 0.0583909957371, 0.491029710491
deltaT = 1.09295984713e-07
Time = 9.49724e-05

Calculating Fluxes
RK2SSP: step 1
Solving compressibleSystem:

RK2SSP: step 2
Solving compressibleSystem:

Post-updating compressibleSystem:

max(p): 58311999.9465, min(p): 101298
max(T): 8602.33115759, min(T): 287.925643795
ExecutionTime = 10.07 s  ClockTime = 10 s

Courant Number Mean/Max = 0.0584790598955, 0.490571516221
deltaT = 1.09295984713e-07
Time = 9.50817e-05

Calculating Fluxes
RK2SSP: step 1
Solving compressibleSystem:

RK2SSP: step 2
Solving compressibleSystem:

Post-updating compressibleSystem:

max(p): 58094407.9709, min(p): 101298
max(T): 8592.53317935, min(T): 287.925643795
ExecutionTime = 10.08 s  ClockTime = 10 s

Courant Number Mean/Max = 0.0585656424703, 0.490114327994
deltaT = 1.09295984713e-07
Time = 9.5191e-05

Calculating Fluxes
RK2SSP: step 1
Solving compressibleSystem:

RK2SSP: step 2
Solving compressibleSystem:

Post-updating compressibleSystem:

max(p): 57877325.4413, min(p): 101298
max(T): 8591.80588624, min(T): 287.925643795
ExecutionTime = 10.09 s  ClockTime = 10 s

Courant Number Mean/Max = 0.0586464081336, 0.489658129098
deltaT = 1.09295984713e-07
Time = 9.53003e-05

Calculating Fluxes
RK2SSP: step 1
Solving compressibleSystem:

RK2SSP: step 2
Solving compressibleSystem:

Post-updating compressibleSystem:

max(p): 57660734.6451, min(p): 101298
max(T): 8592.49946325, min(T): 287.925643795
ExecutionTime = 10.1 s  ClockTime = 10 s

Courant Number Mean/Max = 0.0587302404638, 0.489202900709
deltaT = 1.09295984713e-07
Time = 9.54096e-05

Calculating Fluxes
RK2SSP: step 1
Solving compressibleSystem:

RK2SSP: step 2
Solving compressibleSystem:

Post-updating compressibleSystem:

max(p): 57444655.2401, min(p): 101298
max(T): 8589.61862498, min(T): 287.925643795
ExecutionTime = 10.11 s  ClockTime = 10 s

Courant Number Mean/Max = 0.058819004143, 0.488748627591
deltaT = 1.09295984713e-07
Time = 9.55189e-05

Calculating Fluxes
RK2SSP: step 1
Solving compressibleSystem:

RK2SSP: step 2
Solving compressibleSystem:

Post-updating compressibleSystem:

max(p): 57229381.4162, min(p): 101298
max(T): 8583.11893376, min(T): 287.925643795
ExecutionTime = 10.11 s  ClockTime = 10 s

Courant Number Mean/Max = 0.0589074562402, 0.488295297313
deltaT = 1.09295984713e-07
Time = 9.56282e-05

Calculating Fluxes
RK2SSP: step 1
Solving compressibleSystem:

RK2SSP: step 2
Solving compressibleSystem:

Post-updating compressibleSystem:

max(p): 57018349.8035, min(p): 101298
max(T): 8572.87044421, min(T): 287.925643795
ExecutionTime = 10.12 s  ClockTime = 10 s

Courant Number Mean/Max = 0.058992387264, 0.487842902051
deltaT = 1.09295984713e-07
Time = 9.57375e-05

Calculating Fluxes
RK2SSP: step 1
Solving compressibleSystem:

RK2SSP: step 2
Solving compressibleSystem:

Post-updating compressibleSystem:

max(p): 56807857.6738, min(p): 101298
max(T): 8574.00752501, min(T): 287.925643795
ExecutionTime = 10.13 s  ClockTime = 10 s

Courant Number Mean/Max = 0.0590727214915, 0.487391438714
deltaT = 1.09295984713e-07
Time = 9.58468e-05

Calculating Fluxes
RK2SSP: step 1
Solving compressibleSystem:

RK2SSP: step 2
Solving compressibleSystem:

Post-updating compressibleSystem:

max(p): 56597899.8596, min(p): 101298
max(T): 8574.15818108, min(T): 287.925643795
ExecutionTime = 10.14 s  ClockTime = 10 s

Courant Number Mean/Max = 0.0591609098408, 0.486940907109
deltaT = 1.12249930245e-07
Time = 9.5959e-05

Calculating Fluxes
RK2SSP: step 1
Solving compressibleSystem:

RK2SSP: step 2
Solving compressibleSystem:

Post-updating compressibleSystem:

max(p): 56382823.1937, min(p): 101298
max(T): 8570.63285827, min(T): 287.925643795
ExecutionTime = 10.15 s  ClockTime = 10 s

Courant Number Mean/Max = 0.0608537548518, 0.499627251706
deltaT = 1.12249930245e-07
Time = 9.60713e-05

Calculating Fluxes
RK2SSP: step 1
Solving compressibleSystem:

RK2SSP: step 2
Solving compressibleSystem:

Post-updating compressibleSystem:

max(p): 56168281.4318, min(p): 101298
max(T): 8563.3553836, min(T): 287.925643795
ExecutionTime = 10.15 s  ClockTime = 10 s

Courant Number Mean/Max = 0.0609462487462, 0.499154030772
deltaT = 1.12249930245e-07
Time = 9.61835e-05

Calculating Fluxes
RK2SSP: step 1
Solving compressibleSystem:

RK2SSP: step 2
Solving compressibleSystem:

Post-updating compressibleSystem:

max(p): 55954266.6502, min(p): 101298
max(T): 8553.44085633, min(T): 287.925643795
ExecutionTime = 10.16 s  ClockTime = 10 s

Courant Number Mean/Max = 0.0610324388984, 0.498681803743
deltaT = 1.12249930245e-07
Time = 9.62958e-05

Calculating Fluxes
RK2SSP: step 1
Solving compressibleSystem:

RK2SSP: step 2
Solving compressibleSystem:

Post-updating compressibleSystem:

max(p): 55740808.3824, min(p): 101298
max(T): 8556.20900322, min(T): 287.925643795
ExecutionTime = 10.17 s  ClockTime = 10 s

Courant Number Mean/Max = 0.0611219938848, 0.498210569826
deltaT = 1.12249930245e-07
Time = 9.6408e-05

Calculating Fluxes
RK2SSP: step 1
Solving compressibleSystem:

RK2SSP: step 2
Solving compressibleSystem:

Post-updating compressibleSystem:

max(p): 55527931.4916, min(p): 101298
max(T): 8555.40438204, min(T): 287.925643795
ExecutionTime = 10.18 s  ClockTime = 10 s

Courant Number Mean/Max = 0.0612166028597, 0.497740330332
deltaT = 1.12249930245e-07
Time = 9.65203e-05

Calculating Fluxes
RK2SSP: step 1
Solving compressibleSystem:

RK2SSP: step 2
Solving compressibleSystem:

Post-updating compressibleSystem:

max(p): 55316126.9892, min(p): 101298
max(T): 8550.91481861, min(T): 287.925643795
ExecutionTime = 10.19 s  ClockTime = 10 s

Courant Number Mean/Max = 0.0613108907067, 0.497271086546
deltaT = 1.12249930245e-07
Time = 9.66325e-05

Calculating Fluxes
RK2SSP: step 1
Solving compressibleSystem:

RK2SSP: step 2
Solving compressibleSystem:

Post-updating compressibleSystem:

max(p): 55108061.8904, min(p): 101298
max(T): 8542.7392905, min(T): 287.925643795
ExecutionTime = 10.19 s  ClockTime = 10 s

Courant Number Mean/Max = 0.0614008215892, 0.496802830378
deltaT = 1.12249930245e-07
Time = 9.67448e-05

Calculating Fluxes
RK2SSP: step 1
Solving compressibleSystem:

RK2SSP: step 2
Solving compressibleSystem:

Post-updating compressibleSystem:

max(p): 54900570.1395, min(p): 101298
max(T): 8536.30609781, min(T): 287.925643795
ExecutionTime = 10.2 s  ClockTime = 10 s

Courant Number Mean/Max = 0.0614872931683, 0.496335551946
deltaT = 1.12249930245e-07
Time = 9.6857e-05

Calculating Fluxes
RK2SSP: step 1
Solving compressibleSystem:

RK2SSP: step 2
Solving compressibleSystem:

Post-updating compressibleSystem:

max(p): 54693632.89, min(p): 101298
max(T): 8538.1362806, min(T): 287.925643795
ExecutionTime = 10.21 s  ClockTime = 10 s

Courant Number Mean/Max = 0.0615817726533, 0.495869248794
deltaT = 1.12249930245e-07
Time = 9.69693e-05

Calculating Fluxes
RK2SSP: step 1
Solving compressibleSystem:

RK2SSP: step 2
Solving compressibleSystem:

Post-updating compressibleSystem:

max(p): 54487234.2113, min(p): 101298
max(T): 8536.40124056, min(T): 287.925643795
ExecutionTime = 10.22 s  ClockTime = 10 s

Courant Number Mean/Max = 0.0616767971247, 0.495403909565
deltaT = 1.12249930245e-07
Time = 9.70815e-05

Calculating Fluxes
RK2SSP: step 1
Solving compressibleSystem:

RK2SSP: step 2
Solving compressibleSystem:

Post-updating compressibleSystem:

max(p): 54281386.7611, min(p): 101298
max(T): 8530.99715594, min(T): 287.925643795
ExecutionTime = 10.23 s  ClockTime = 10 s

Courant Number Mean/Max = 0.0617696646877, 0.494939521893
deltaT = 1.12249930245e-07
Time = 9.71938e-05

Calculating Fluxes
RK2SSP: step 1
Solving compressibleSystem:

RK2SSP: step 2
Solving compressibleSystem:

Post-updating compressibleSystem:

max(p): 54076113.9505, min(p): 101298
max(T): 8521.91285251, min(T): 287.925643795
ExecutionTime = 10.23 s  ClockTime = 10 s

Courant Number Mean/Max = 0.0618552374516, 0.494476077932
deltaT = 1.12249930245e-07
Time = 9.7306e-05

Calculating Fluxes
RK2SSP: step 1
Solving compressibleSystem:

RK2SSP: step 2
Solving compressibleSystem:

Post-updating compressibleSystem:

max(p): 53871433.5815, min(p): 101298
max(T): 8518.8960308, min(T): 287.925643795
ExecutionTime = 10.24 s  ClockTime = 10 s

Courant Number Mean/Max = 0.0619479315291, 0.494013574077
deltaT = 1.12249930245e-07
Time = 9.74183e-05

Calculating Fluxes
RK2SSP: step 1
Solving compressibleSystem:

RK2SSP: step 2
Solving compressibleSystem:

Post-updating compressibleSystem:

max(p): 53667366.5989, min(p): 101298
max(T): 8519.78418214, min(T): 287.925643795
ExecutionTime = 10.25 s  ClockTime = 10 s

Courant Number Mean/Max = 0.0620433437475, 0.493552003911
deltaT = 1.12249930245e-07
Time = 9.75305e-05

Calculating Fluxes
RK2SSP: step 1
Solving compressibleSystem:

RK2SSP: step 2
Solving compressibleSystem:

Post-updating compressibleSystem:

max(p): 53464105.3903, min(p): 101298
max(T): 8517.17083848, min(T): 287.925643795
ExecutionTime = 10.26 s  ClockTime = 10 s

Courant Number Mean/Max = 0.0621383813103, 0.493091368578
deltaT = 1.12249930245e-07
Time = 9.76428e-05

Calculating Fluxes
RK2SSP: step 1
Solving compressibleSystem:

RK2SSP: step 2
Solving compressibleSystem:

Post-updating compressibleSystem:

max(p): 53264414.4201, min(p): 101298
max(T): 8510.91333916, min(T): 287.925643795
ExecutionTime = 10.27 s  ClockTime = 10 s

Courant Number Mean/Max = 0.0622282384576, 0.492631673744
deltaT = 1.12249930245e-07
Time = 9.7755e-05

Calculating Fluxes
RK2SSP: step 1
Solving compressibleSystem:

RK2SSP: step 2
Solving compressibleSystem:

Post-updating compressibleSystem:

max(p): 53065274.6927, min(p): 101298
max(T): 8500.9918194, min(T): 287.925643795
ExecutionTime = 10.27 s  ClockTime = 10 s

Courant Number Mean/Max = 0.0623167838288, 0.492172925238
deltaT = 1.12249930245e-07
Time = 9.78673e-05

Calculating Fluxes
RK2SSP: step 1
Solving compressibleSystem:

RK2SSP: step 2
Solving compressibleSystem:

Post-updating compressibleSystem:

max(p): 52866691.0784, min(p): 101298
max(T): 8501.24342212, min(T): 287.925643795
ExecutionTime = 10.28 s  ClockTime = 10 s

Courant Number Mean/Max = 0.062412658313, 0.491715124341
deltaT = 1.12249930245e-07
Time = 9.79795e-05

Calculating Fluxes
RK2SSP: step 1
Solving compressibleSystem:

RK2SSP: step 2
Solving compressibleSystem:

Post-updating compressibleSystem:

max(p): 52668680.2163, min(p): 101298
max(T): 8501.24372764, min(T): 287.925643795
ExecutionTime = 10.29 s  ClockTime = 10 s

Courant Number Mean/Max = 0.062508641542, 0.491258289662
deltaT = 1.12249930245e-07
Time = 9.80918e-05

Calculating Fluxes
RK2SSP: step 1
Solving compressibleSystem:

RK2SSP: step 2
Solving compressibleSystem:

Post-updating compressibleSystem:

max(p): 52471258.7496, min(p): 101298
max(T): 8497.77653271, min(T): 287.925643795
ExecutionTime = 10.3 s  ClockTime = 10 s

Courant Number Mean/Max = 0.0626016857615, 0.490802448151
deltaT = 1.12249930245e-07
Time = 9.8204e-05

Calculating Fluxes
RK2SSP: step 1
Solving compressibleSystem:

RK2SSP: step 2
Solving compressibleSystem:

Post-updating compressibleSystem:

max(p): 52274438.3216, min(p): 101298
max(T): 8490.7395105, min(T): 287.925643795
ExecutionTime = 10.31 s  ClockTime = 10 s

Courant Number Mean/Max = 0.0626878859652, 0.490347586525
deltaT = 1.12249930245e-07
Time = 9.83163e-05

Calculating Fluxes
RK2SSP: step 1
Solving compressibleSystem:

RK2SSP: step 2
Solving compressibleSystem:

Post-updating compressibleSystem:

max(p): 52078233.6095, min(p): 101298
max(T): 8480.95188153, min(T): 287.925643795
ExecutionTime = 10.31 s  ClockTime = 10 s

Courant Number Mean/Max = 0.0627829187534, 0.489893681761
deltaT = 1.12249930245e-07
Time = 9.84285e-05

Calculating Fluxes
RK2SSP: step 1
Solving compressibleSystem:

RK2SSP: step 2
Solving compressibleSystem:

Post-updating compressibleSystem:

max(p): 51882684.7754, min(p): 101298
max(T): 8483.36378663, min(T): 287.925643795
ExecutionTime = 10.32 s  ClockTime = 10 s

Courant Number Mean/Max = 0.0628793742797, 0.489440713105
deltaT = 1.12249930245e-07
Time = 9.85408e-05

Calculating Fluxes
RK2SSP: step 1
Solving compressibleSystem:

RK2SSP: step 2
Solving compressibleSystem:

Post-updating compressibleSystem:

max(p): 51687833.405, min(p): 101298
max(T): 8482.54017484, min(T): 287.925643795
ExecutionTime = 10.33 s  ClockTime = 10 s

Courant Number Mean/Max = 0.0629748793924, 0.48898866189
deltaT = 1.12249930245e-07
Time = 9.8653e-05

Calculating Fluxes
RK2SSP: step 1
Solving compressibleSystem:

RK2SSP: step 2
Solving compressibleSystem:

Post-updating compressibleSystem:

max(p): 51495220.187, min(p): 101298
max(T): 8478.28111983, min(T): 287.925643795
ExecutionTime = 10.34 s  ClockTime = 10 s

Courant Number Mean/Max = 0.0630644173979, 0.488537521901
deltaT = 1.12249930245e-07
Time = 9.87653e-05

Calculating Fluxes
RK2SSP: step 1
Solving compressibleSystem:

RK2SSP: step 2
Solving compressibleSystem:

Post-updating compressibleSystem:

max(p): 51304135.6987, min(p): 101298
max(T): 8470.51843019, min(T): 287.925643795
ExecutionTime = 10.35 s  ClockTime = 10 s

Courant Number Mean/Max = 0.0631550717071, 0.488087288133
deltaT = 1.12249930245e-07
Time = 9.88775e-05

Calculating Fluxes
RK2SSP: step 1
Solving compressibleSystem:

RK2SSP: step 2
Solving compressibleSystem:

Post-updating compressibleSystem:

max(p): 51113640.7965, min(p): 101298
max(T): 8463.68261536, min(T): 287.925643795
ExecutionTime = 10.35 s  ClockTime = 10 s

Courant Number Mean/Max = 0.0632521350198, 0.487637956966
deltaT = 1.12249930245e-07
Time = 9.89898e-05

Calculating Fluxes
RK2SSP: step 1
Solving compressibleSystem:

RK2SSP: step 2
Solving compressibleSystem:

Post-updating compressibleSystem:

max(p): 50923746.0003, min(p): 101298
max(T): 8465.34371039, min(T): 287.925643795
ExecutionTime = 10.36 s  ClockTime = 10 s

Courant Number Mean/Max = 0.0633490740916, 0.487189516888
deltaT = 1.12249930245e-07
Time = 9.9102e-05

Calculating Fluxes
RK2SSP: step 1
Solving compressibleSystem:

RK2SSP: step 2
Solving compressibleSystem:

Post-updating compressibleSystem:

max(p): 50734458.3859, min(p): 101298
max(T): 8463.74437531, min(T): 287.925643795
ExecutionTime = 10.37 s  ClockTime = 10 s

Courant Number Mean/Max = 0.0634422390835, 0.486741951505
deltaT = 1.12249930245e-07
Time = 9.92143e-05

Calculating Fluxes
RK2SSP: step 1
Solving compressibleSystem:

RK2SSP: step 2
Solving compressibleSystem:

Post-updating compressibleSystem:

max(p): 50545799.9871, min(p): 101298
max(T): 8458.73930018, min(T): 287.925643795
ExecutionTime = 10.38 s  ClockTime = 10 s

Courant Number Mean/Max = 0.0635300617213, 0.486295257182
deltaT = 1.12249930245e-07
Time = 9.93265e-05

Calculating Fluxes
RK2SSP: step 1
Solving compressibleSystem:

RK2SSP: step 2
Solving compressibleSystem:

Post-updating compressibleSystem:

max(p): 50357806.3152, min(p): 101298
max(T): 8450.29106438, min(T): 287.925643795
ExecutionTime = 10.39 s  ClockTime = 10 s

Courant Number Mean/Max = 0.0636265310755, 0.48584945078
deltaT = 1.12249930245e-07
Time = 9.94388e-05

Calculating Fluxes
RK2SSP: step 1
Solving compressibleSystem:

RK2SSP: step 2
Solving compressibleSystem:

Post-updating compressibleSystem:

max(p): 50170499.27, min(p): 101298
max(T): 8446.27640871, min(T): 287.925643795
ExecutionTime = 10.39 s  ClockTime = 10 s

Courant Number Mean/Max = 0.0637240052861, 0.485404541761
deltaT = 1.12249930245e-07
Time = 9.9551e-05

Calculating Fluxes
RK2SSP: step 1
Solving compressibleSystem:

RK2SSP: step 2
Solving compressibleSystem:

Post-updating compressibleSystem:

max(p): 49983889.8899, min(p): 101298
max(T): 8447.22613115, min(T): 287.925643795
ExecutionTime = 10.4 s  ClockTime = 10 s

Courant Number Mean/Max = 0.063819948863, 0.484960533821
deltaT = 1.12249930245e-07
Time = 9.96633e-05

Calculating Fluxes
RK2SSP: step 1
Solving compressibleSystem:

RK2SSP: step 2
Solving compressibleSystem:

Post-updating compressibleSystem:

max(p): 49797988.0653, min(p): 101298
max(T): 8444.89110833, min(T): 287.925643795
ExecutionTime = 10.41 s  ClockTime = 10 s

Courant Number Mean/Max = 0.0639091233912, 0.484517429948
deltaT = 1.12249930245e-07
Time = 9.97755e-05

Calculating Fluxes
RK2SSP: step 1
Solving compressibleSystem:

RK2SSP: step 2
Solving compressibleSystem:

Post-updating compressibleSystem:

max(p): 49613897.7396, min(p): 101298
max(T): 8439.17832481, min(T): 287.925643795
ExecutionTime = 10.42 s  ClockTime = 10 s

Courant Number Mean/Max = 0.06400209781, 0.484075237156
deltaT = 1.12249930245e-07
Time = 9.98878e-05

Calculating Fluxes
RK2SSP: step 1
Solving compressibleSystem:

RK2SSP: step 2
Solving compressibleSystem:

Post-updating compressibleSystem:

max(p): 49431208.9769, min(p): 101298
max(T): 8430.08082977, min(T): 287.925643795
ExecutionTime = 10.43 s  ClockTime = 11 s

Courant Number Mean/Max = 0.0641001169293, 0.483633958027
deltaT = 1.12249930245e-07
Time = 0.0001

Calculating Fluxes
RK2SSP: step 1
Solving compressibleSystem:

RK2SSP: step 2
Solving compressibleSystem:

Post-updating compressibleSystem:

max(p): 49249130.9509, min(p): 101298
max(T): 8428.76632477, min(T): 287.925643795
ExecutionTime = 10.43 s  ClockTime = 11 s

End

