Invalid MIT-MAGIC-COOKIE-1 key/*---------------------------------------------------------------------------*\
  =========                 |
  \\      /  F ield         | OpenFOAM: The Open Source CFD Toolbox
   \\    /   O peration     | Website:  https://openfoam.org
    \\  /    A nd           | Version:  9
     \\/     M anipulation  |
\*---------------------------------------------------------------------------*/
Build  : 9-b456138dc4bc
Exec   : blastFoam -parallel
Date   : Jan 15 2025
Time   : 16:54:53
Host   : "mail-18"
PID    : 154371
I/O    : uncollated
Case   : /home/reid/OpenFOAM/blastfoam/tutorials/blastFoam/building3DWorkshop
nProcs : 6
Slaves : 
5
(
"mail-18.154372"
"mail-18.154373"
"mail-18.154374"
"mail-18.154375"
"mail-18.154376"
)

Pstream initialised with:
    floatTransfer      : 0
    nProcsSimpleSum    : 0
    commsType          : nonBlocking
    polling iterations : 0
sigFpe : Enabling floating point exception trapping (FOAM_SIGFPE).
fileModificationChecking : Monitoring run-time modified files using timeStampMaster (fileModificationSkew 10)
allowSystemOperations : Allowing user-supplied system call operations

// * * * * * * * * * * * * * * * * * * * * * * * * * * * * * * * * * * * * * //
Create time

Create mesh for time = 0

Selecting dynamicFvMesh adaptiveFvMesh
Selecting errorEstimator: densityGradient
Selecting fvMeshRefiner hexRefiner

Reading g
Selecting timeIntegrator: RK2SSP
Reading phaseProperties dictionary

Selecting thermodynamics package phaseFluid<detonating<const<eConst<Murnaghan<specie>>>,const<eConst<JWL<specie>>>>>
Selecting activationModel: linear
Initiation Points: 
    1((1 -8.13152e-19 0.5))
Delays: 
    1(0)
Radii: 
    1(0)
Selecting afterburnModel: none
Selecting thermodynamics package phaseFluid<basic<const<eConst<idealGas<specie>>>>>
Selecting univariate root solver: NewtonRaphson
Selecting univariate root solver: NewtonRaphson
Selecting fluxScheme: Tadmor

Starting time loop

Reading surface description:
    ground
    pContours
    zNormal
    yNormal
    xNormal

Courant Number Mean/Max = 0.000276171, 0.00190539
deltaT = 1.19904e-07
Time = 1.19904076739e-07

Calculating Fluxes
RK2SSP: step 1
Solving compressibleSystem:
activating point (1 -8.13152e-19 0.5)

RK2SSP: step 2
Solving compressibleSystem:

Post-updating compressibleSystem:

max(p): 1.14026e+10, min(p): 101298
max(T): 2561.41, min(T): 279.283
ExecutionTime = 0.28 s  ClockTime = 0 s

Courant Number Mean/Max = 0.000331147, 0.0161024
deltaT = 1.43747e-07
Time = 2.63650750869e-07

Calculating Fluxes
RK2SSP: step 1
Solving compressibleSystem:

RK2SSP: step 2
Solving compressibleSystem:

Post-updating compressibleSystem:

max(p): 1.08568e+10, min(p): 101298
max(T): 2484.33, min(T): 0
ExecutionTime = 0.33 s  ClockTime = 0 s

Selected 0 cells for refinement out of 23160.
Selected 363 split points out of a possible 580.
Unrefined from 23160 to 20619 cells.
Courant Number Mean/Max = 0.000394969, 0.0281777
deltaT = 1.72098e-07
Time = 4.35748845157e-07

Calculating Fluxes
RK2SSP: step 1
Solving compressibleSystem:

RK2SSP: step 2
Solving compressibleSystem:

Post-updating compressibleSystem:

max(p): 1.1002e+10, min(p): 101298
max(T): 2328.01, min(T): 0
ExecutionTime = 0.45 s  ClockTime = 0 s

Courant Number Mean/Max = 0.000473373, 0.0441594
deltaT = 2.06518e-07
Time = 6.42266558302e-07

Calculating Fluxes
RK2SSP: step 1
Solving compressibleSystem:

RK2SSP: step 2
Solving compressibleSystem:

Post-updating compressibleSystem:

max(p): 1.05832e+10, min(p): 101298
max(T): 2230.79, min(T): 0
ExecutionTime = 0.55 s  ClockTime = 0 s

Selected 0 cells for refinement out of 20619.
Selected 55 split points out of a possible 277.
Unrefined from 20619 to 20234 cells.
[5] Selecting decompositionMethod scotch
Maximum imbalance = 42.7103 %
[0] Selecting decompositionMethod scotch
Selecting decompositionConstraint hexRefRefinementHistory
hexRefRefinementHistory : setting constraints to preserve refinement history
[1] Selecting decompositionMethod scotch
[2] Selecting decompositionMethod scotch
[3] Selecting decompositionMethod scotch
[4] Selecting decompositionMethod scotch
hexRefRefinementHistory : found refinementHistory
Mapping the fields ...
Distributing the mesh ...
Successfully distributed mesh
New max imbalance: 0.988435%
Distributing ...
Courant Number Mean/Max = 0.000566943, 0.048527
deltaT = 2.46789e-07
Time = 8.8905522551e-07

Calculating Fluxes
RK2SSP: step 1
Solving compressibleSystem:

RK2SSP: step 2
Solving compressibleSystem:

Post-updating compressibleSystem:

max(p): 1.09063e+10, min(p): 101298
max(T): 1999.94, min(T): 0
ExecutionTime = 0.77 s  ClockTime = 0 s

Courant Number Mean/Max = 0.00067793, 0.058951
deltaT = 2.95849e-07
Time = 1.18490429042e-06

Calculating Fluxes
RK2SSP: step 1
Solving compressibleSystem:

RK2SSP: step 2
Solving compressibleSystem:

Post-updating compressibleSystem:

max(p): 1.09015e+10, min(p): 101298
max(T): 1794.11, min(T): 0
ExecutionTime = 0.82 s  ClockTime = 0 s

Selected 0 cells for refinement out of 20234.
Selected 0 split points out of a possible 222.
Courant Number Mean/Max = 0.000813209, 0.0826689
deltaT = 3.53733e-07
Time = 1.53863686802e-06

Calculating Fluxes
RK2SSP: step 1
Solving compressibleSystem:

RK2SSP: step 2
Solving compressibleSystem:

Post-updating compressibleSystem:

max(p): 1.07422e+10, min(p): 101298
max(T): 1641.21, min(T): 0
ExecutionTime = 0.86 s  ClockTime = 0 s

Courant Number Mean/Max = 0.000972807, 0.0956699
deltaT = 4.21403e-07
Time = 1.96004002569e-06

Calculating Fluxes
RK2SSP: step 1
Solving compressibleSystem:

RK2SSP: step 2
Solving compressibleSystem:

Post-updating compressibleSystem:

max(p): 1.0556e+10, min(p): 101298
max(T): 1745.48, min(T): 0
ExecutionTime = 0.89 s  ClockTime = 0 s

Selected 0 cells for refinement out of 20234.
Selected 0 split points out of a possible 222.
Maximum imbalance = 0.988435 %
Courant Number Mean/Max = 0.00115972, 0.105677
deltaT = 5.05684e-07
Time = 2.4657238149e-06

Calculating Fluxes
RK2SSP: step 1
Solving compressibleSystem:

RK2SSP: step 2
Solving compressibleSystem:

Post-updating compressibleSystem:

max(p): 8.06537e+09, min(p): 101298
max(T): 1721.45, min(T): 0
ExecutionTime = 0.93 s  ClockTime = 0 s

Courant Number Mean/Max = 0.00139244, 0.133645
deltaT = 6.017e-07
Time = 3.06742351344e-06

Calculating Fluxes
RK2SSP: step 1
Solving compressibleSystem:

RK2SSP: step 2
Solving compressibleSystem:

Post-updating compressibleSystem:

max(p): 7.79034e+09, min(p): 101298
max(T): 1632.33, min(T): 0
ExecutionTime = 0.96 s  ClockTime = 0 s

Selected 0 cells for refinement out of 20234.
Selected 0 split points out of a possible 222.
Courant Number Mean/Max = 0.00165777, 0.15731
deltaT = 7.2204e-07
Time = 3.7894631517e-06

Calculating Fluxes
RK2SSP: step 1
Solving compressibleSystem:

RK2SSP: step 2
Solving compressibleSystem:

Post-updating compressibleSystem:

max(p): 9.92787e+09, min(p): 101298
max(T): 1600.61, min(T): 0
ExecutionTime = 0.99 s  ClockTime = 1 s

Courant Number Mean/Max = 0.00199093, 0.193428
deltaT = 8.55751e-07
Time = 4.64521383407e-06

Calculating Fluxes
RK2SSP: step 1
Solving compressibleSystem:

RK2SSP: step 2
Solving compressibleSystem:

Post-updating compressibleSystem:

max(p): 8.21271e+09, min(p): 101298
max(T): 1632.27, min(T): 0
ExecutionTime = 1.03 s  ClockTime = 1 s

Selected 0 cells for refinement out of 20234.
Selected 0 split points out of a possible 222.
Maximum imbalance = 0.988435 %
Courant Number Mean/Max = 0.00236203, 0.243813
deltaT = 1.00788e-06
Time = 5.65309797109e-06

Calculating Fluxes
RK2SSP: step 1
Solving compressibleSystem:

RK2SSP: step 2
Solving compressibleSystem:

Post-updating compressibleSystem:

max(p): 7.75189e+09, min(p): 101298
max(T): 1733.14, min(T): 0
ExecutionTime = 1.07 s  ClockTime = 1 s

Courant Number Mean/Max = 0.00278477, 0.278777
deltaT = 1.16702e-06
Time = 6.8201217087e-06

Calculating Fluxes
RK2SSP: step 1
Solving compressibleSystem:

RK2SSP: step 2
Solving compressibleSystem:

Post-updating compressibleSystem:

max(p): 7.82964e+09, min(p): 101298
max(T): 2203.46, min(T): 0
ExecutionTime = 1.1 s  ClockTime = 1 s

Selected 20 cells for refinement out of 20234.
Refined from 20234 to 20374 cells.
Selected 0 split points out of a possible 236.
Courant Number Mean/Max = 0.00323034, 0.313262
deltaT = 1.34937e-06
Time = 8.1694929053e-06

Calculating Fluxes
RK2SSP: step 1
Solving compressibleSystem:

RK2SSP: step 2
Solving compressibleSystem:

Post-updating compressibleSystem:

max(p): 1.00122e+10, min(p): 101298
max(T): 2990.61, min(T): 0
ExecutionTime = 1.17 s  ClockTime = 1 s

Courant Number Mean/Max = 0.00373982, 0.357957
deltaT = 1.49395e-06
Time = 9.66343958725e-06

Calculating Fluxes
RK2SSP: step 1
Solving compressibleSystem:

RK2SSP: step 2
Solving compressibleSystem:

Post-updating compressibleSystem:

max(p): 8.95672e+09, min(p): 101298
max(T): 2559.79, min(T): 6.99472
ExecutionTime = 1.23 s  ClockTime = 1 s

Selected 4 cells for refinement out of 20374.
Refined from 20374 to 20402 cells.
Selected 0 split points out of a possible 238.
Maximum imbalance = 2.22527 %
Courant Number Mean/Max = 0.00414726, 0.387303
deltaT = 1.68069e-06
Time = 1.13441296044e-05

Calculating Fluxes
RK2SSP: step 1
Solving compressibleSystem:

RK2SSP: step 2
Solving compressibleSystem:

Post-updating compressibleSystem:

max(p): 7.64971e+09, min(p): 101298
max(T): 2243.1, min(T): 63.5809
ExecutionTime = 1.31 s  ClockTime = 1 s

Courant Number Mean/Max = 0.00467324, 0.427644
deltaT = 1.84076e-06
Time = 1.31848853376e-05

Calculating Fluxes
RK2SSP: step 1
Solving compressibleSystem:

RK2SSP: step 2
Solving compressibleSystem:

Post-updating compressibleSystem:

max(p): 6.2509e+09, min(p): 101298
max(T): 2120.28, min(T): 100.081
ExecutionTime = 1.36 s  ClockTime = 1 s

Selected 26 cells for refinement out of 20402.
Refined from 20402 to 20584 cells.
Selected 0 split points out of a possible 260.
Courant Number Mean/Max = 0.00513182, 0.460947
deltaT = 1.93764e-06
Time = 1.51225229514e-05

Calculating Fluxes
RK2SSP: step 1
Solving compressibleSystem:

RK2SSP: step 2
Solving compressibleSystem:

Post-updating compressibleSystem:

max(p): 5.00631e+09, min(p): 101298
max(T): 2137.19, min(T): 134.803
ExecutionTime = 1.43 s  ClockTime = 1 s

Courant Number Mean/Max = 0.00541126, 0.46247
deltaT = 2.05162e-06
Time = 1.71741392484e-05

Calculating Fluxes
RK2SSP: step 1
Solving compressibleSystem:

RK2SSP: step 2
Solving compressibleSystem:

Post-updating compressibleSystem:

max(p): 3.92304e+09, min(p): 101298
max(T): 2114.58, min(T): 174.454
ExecutionTime = 1.5 s  ClockTime = 1 s

Selected 18 cells for refinement out of 20584.
Refined from 20584 to 20710 cells.
Selected 0 split points out of a possible 272.
Maximum imbalance = 4.8479 %
Courant Number Mean/Max = 0.00574425, 0.508959
deltaT = 1.93093e-06
Time = 1.91050722338e-05

Calculating Fluxes
RK2SSP: step 1
Solving compressibleSystem:

RK2SSP: step 2
Solving compressibleSystem:

Post-updating compressibleSystem:

max(p): 3.08947e+09, min(p): 101298
max(T): 2333.69, min(T): 287.926
ExecutionTime = 1.57 s  ClockTime = 1 s

Courant Number Mean/Max = 0.00541505, 0.455963
deltaT = 2.05966e-06
Time = 2.11647340848e-05

Calculating Fluxes
RK2SSP: step 1
Solving compressibleSystem:

RK2SSP: step 2
Solving compressibleSystem:

Post-updating compressibleSystem:

max(p): 2.39183e+09, min(p): 101298
max(T): 2296.32, min(T): 287.926
ExecutionTime = 1.63 s  ClockTime = 1 s

Selected 2 cells for refinement out of 20710.
Refined from 20710 to 20724 cells.
Selected 0 split points out of a possible 274.
Courant Number Mean/Max = 0.00578506, 0.470996
deltaT = 2.05966e-06
Time = 2.32243959359e-05

Calculating Fluxes
RK2SSP: step 1
Solving compressibleSystem:

RK2SSP: step 2
Solving compressibleSystem:

Post-updating compressibleSystem:

max(p): 1.86259e+09, min(p): 101298
max(T): 2264.73, min(T): 287.926
ExecutionTime = 1.7 s  ClockTime = 1 s

Courant Number Mean/Max = 0.00579312, 0.46861
deltaT = 2.05966e-06
Time = 2.5284057787e-05

Calculating Fluxes
RK2SSP: step 1
Solving compressibleSystem:

RK2SSP: step 2
Solving compressibleSystem:

Post-updating compressibleSystem:

max(p): 1.46375e+09, min(p): 101298
max(T): 2238, min(T): 287.926
ExecutionTime = 1.76 s  ClockTime = 1 s

Selected 27 cells for refinement out of 20724.
Refined from 20724 to 20913 cells.
Selected 0 split points out of a possible 301.
Maximum imbalance = 6.75656 %
Courant Number Mean/Max = 0.00580946, 0.466468
deltaT = 2.05966e-06
Time = 2.73437196381e-05

Calculating Fluxes
RK2SSP: step 1
Solving compressibleSystem:

RK2SSP: step 2
Solving compressibleSystem:

Post-updating compressibleSystem:

max(p): 1.16152e+09, min(p): 101298
max(T): 2105.04, min(T): 287.926
ExecutionTime = 1.84 s  ClockTime = 1 s

Courant Number Mean/Max = 0.00581614, 0.456636
deltaT = 2.05966e-06
Time = 2.94033814892e-05

Calculating Fluxes
RK2SSP: step 1
Solving compressibleSystem:

RK2SSP: step 2
Solving compressibleSystem:

Post-updating compressibleSystem:

max(p): 9.29238e+08, min(p): 101298
max(T): 2223.49, min(T): 287.926
ExecutionTime = 1.9 s  ClockTime = 1 s

Selected 30 cells for refinement out of 20913.
Refined from 20913 to 21123 cells.
Selected 0 split points out of a possible 331.
Courant Number Mean/Max = 0.00583458, 0.446151
deltaT = 2.28851e-06
Time = 3.1691894657e-05

Calculating Fluxes
RK2SSP: step 1
Solving compressibleSystem:

RK2SSP: step 2
Solving compressibleSystem:

Post-updating compressibleSystem:

max(p): 7.30549e+08, min(p): 101298
max(T): 2284.76, min(T): 287.926
ExecutionTime = 1.97 s  ClockTime = 1 s

Courant Number Mean/Max = 0.00649066, 0.50128
deltaT = 2.03423e-06
Time = 3.3726128584e-05

Calculating Fluxes
RK2SSP: step 1
Solving compressibleSystem:

RK2SSP: step 2
Solving compressibleSystem:

Post-updating compressibleSystem:

max(p): 5.92793e+08, min(p): 101298
max(T): 2122.21, min(T): 287.926
ExecutionTime = 2.03 s  ClockTime = 2 s

Selected 35 cells for refinement out of 21123.
Refined from 21123 to 21368 cells.
Selected 0 split points out of a possible 364.
Maximum imbalance = 10.5766 %
Courant Number Mean/Max = 0.0057872, 0.446882
deltaT = 2.03423e-06
Time = 3.5760362511e-05

Calculating Fluxes
RK2SSP: step 1
Solving compressibleSystem:

RK2SSP: step 2
Solving compressibleSystem:

Post-updating compressibleSystem:

max(p): 4.82399e+08, min(p): 101298
max(T): 2252.11, min(T): 287.926
ExecutionTime = 2.11 s  ClockTime = 2 s

Courant Number Mean/Max = 0.00579373, 0.448349
deltaT = 2.03423e-06
Time = 3.7794596438e-05

Calculating Fluxes
RK2SSP: step 1
Solving compressibleSystem:

RK2SSP: step 2
Solving compressibleSystem:

Post-updating compressibleSystem:

max(p): 3.9381e+08, min(p): 101298
max(T): 2359.11, min(T): 287.926
ExecutionTime = 2.17 s  ClockTime = 2 s

Selected 7 cells for refinement out of 21368.
Refined from 21368 to 21417 cells.
Selected 0 split points out of a possible 371.
Courant Number Mean/Max = 0.00580244, 0.449554
deltaT = 2.03423e-06
Time = 3.9828830365e-05

Calculating Fluxes
RK2SSP: step 1
Solving compressibleSystem:

RK2SSP: step 2
Solving compressibleSystem:

Post-updating compressibleSystem:

max(p): 3.22908e+08, min(p): 101298
max(T): 2296.81, min(T): 287.926
ExecutionTime = 2.25 s  ClockTime = 2 s

Courant Number Mean/Max = 0.00580887, 0.453554
deltaT = 2.03423e-06
Time = 4.1863064292e-05

Calculating Fluxes
RK2SSP: step 1
Solving compressibleSystem:

RK2SSP: step 2
Solving compressibleSystem:

Post-updating compressibleSystem:

max(p): 2.66583e+08, min(p): 101298
max(T): 2341.11, min(T): 287.926
ExecutionTime = 2.31 s  ClockTime = 2 s

Selected 12 cells for refinement out of 21417.
Refined from 21417 to 21501 cells.
Selected 0 split points out of a possible 383.
Maximum imbalance = 11.6506 %
Courant Number Mean/Max = 0.00581929, 0.452198
deltaT = 2.03423e-06
Time = 4.3897298219e-05

Calculating Fluxes
RK2SSP: step 1
Solving compressibleSystem:

RK2SSP: step 2
Solving compressibleSystem:

Post-updating compressibleSystem:

max(p): 2.21994e+08, min(p): 101298
max(T): 2586.73, min(T): 287.926
ExecutionTime = 2.39 s  ClockTime = 2 s

Courant Number Mean/Max = 0.00582407, 0.453815
deltaT = 2.03423e-06
Time = 4.5931532146e-05

Calculating Fluxes
RK2SSP: step 1
Solving compressibleSystem:

RK2SSP: step 2
Solving compressibleSystem:

Post-updating compressibleSystem:

max(p): 1.8672e+08, min(p): 101298
max(T): 2589.8, min(T): 287.926
ExecutionTime = 2.45 s  ClockTime = 2 s

Selected 5 cells for refinement out of 21501.
Refined from 21501 to 21536 cells.
Selected 0 split points out of a possible 385.
Courant Number Mean/Max = 0.00582939, 0.455059
deltaT = 2.03423e-06
Time = 4.7965766073e-05

Calculating Fluxes
RK2SSP: step 1
Solving compressibleSystem:

RK2SSP: step 2
Solving compressibleSystem:

Post-updating compressibleSystem:

max(p): 1.58862e+08, min(p): 101298
max(T): 2698.19, min(T): 287.926
ExecutionTime = 2.53 s  ClockTime = 2 s

Courant Number Mean/Max = 0.00583326, 0.453721
deltaT = 2.03423e-06
Time = 5e-05

Calculating Fluxes
RK2SSP: step 1
Solving compressibleSystem:

RK2SSP: step 2
Solving compressibleSystem:

Post-updating compressibleSystem:

max(p): 1.36838e+08, min(p): 101298
max(T): 2616.83, min(T): 287.926
ExecutionTime = 2.67 s  ClockTime = 2 s

Selected 11 cells for refinement out of 21536.
Refined from 21536 to 21613 cells.
Selected 0 split points out of a possible 395.
Maximum imbalance = 13.0153 %
Courant Number Mean/Max = 0.0058408, 0.440209
deltaT = 2.17391e-06
Time = 5.21739130435e-05

Calculating Fluxes
RK2SSP: step 1
Solving compressibleSystem:

RK2SSP: step 2
Solving compressibleSystem:

Post-updating compressibleSystem:

max(p): 1.18289e+08, min(p): 101298
max(T): 2701.18, min(T): 287.926
ExecutionTime = 2.76 s  ClockTime = 2 s

Courant Number Mean/Max = 0.00624618, 0.455223
deltaT = 2.27743e-06
Time = 5.44513457557e-05

Calculating Fluxes
RK2SSP: step 1
Solving compressibleSystem:

RK2SSP: step 2
Solving compressibleSystem:

Post-updating compressibleSystem:

max(p): 1.03035e+08, min(p): 101298
max(T): 2796.91, min(T): 287.926
ExecutionTime = 2.83 s  ClockTime = 2 s

Selected 26 cells for refinement out of 21613.
Refined from 21613 to 21795 cells.
Selected 0 split points out of a possible 417.
Courant Number Mean/Max = 0.00655382, 0.460147
deltaT = 2.3973e-06
Time = 5.68486433475e-05

Calculating Fluxes
RK2SSP: step 1
Solving compressibleSystem:

RK2SSP: step 2
Solving compressibleSystem:

Post-updating compressibleSystem:

max(p): 9.03903e+07, min(p): 101298
max(T): 2896.83, min(T): 287.926
ExecutionTime = 2.93 s  ClockTime = 2 s

Courant Number Mean/Max = 0.00690313, 0.468168
deltaT = 2.53832e-06
Time = 5.93869584447e-05

Calculating Fluxes
RK2SSP: step 1
Solving compressibleSystem:

RK2SSP: step 2
Solving compressibleSystem:

Post-updating compressibleSystem:

max(p): 7.97605e+07, min(p): 101298
max(T): 2996.6, min(T): 287.926
ExecutionTime = 3 s  ClockTime = 3 s

Selected 20 cells for refinement out of 21795.
Refined from 21795 to 21935 cells.
Selected 0 split points out of a possible 431.
Maximum imbalance = 15.5687 %
hexRefRefinementHistory : found refinementHistory
Mapping the fields ...
Distributing the mesh ...
Successfully distributed mesh
New max imbalance: 1.00752%
Distributing ...
Courant Number Mean/Max = 0.00731893, 0.476006
deltaT = 2.53832e-06
Time = 6.19252735419e-05

Calculating Fluxes
RK2SSP: step 1
Solving compressibleSystem:

RK2SSP: step 2
Solving compressibleSystem:

Post-updating compressibleSystem:

max(p): 7.11619e+07, min(p): 101298
max(T): 3090.19, min(T): 287.926
ExecutionTime = 3.22 s  ClockTime = 3 s

Courant Number Mean/Max = 0.0073242, 0.455167
deltaT = 2.71962e-06
Time = 6.46448968603e-05

Calculating Fluxes
RK2SSP: step 1
Solving compressibleSystem:

RK2SSP: step 2
Solving compressibleSystem:

Post-updating compressibleSystem:

max(p): 6.35664e+07, min(p): 101298
max(T): 3124.64, min(T): 287.926
ExecutionTime = 3.28 s  ClockTime = 3 s

Selected 30 cells for refinement out of 21935.
Refined from 21935 to 22145 cells.
Selected 0 split points out of a possible 455.
Courant Number Mean/Max = 0.00786304, 0.463653
deltaT = 2.71962e-06
Time = 6.73645201788e-05

Calculating Fluxes
RK2SSP: step 1
Solving compressibleSystem:

RK2SSP: step 2
Solving compressibleSystem:

Post-updating compressibleSystem:

max(p): 5.71863e+07, min(p): 101298
max(T): 3154.09, min(T): 287.926
ExecutionTime = 3.37 s  ClockTime = 3 s

Courant Number Mean/Max = 0.00786907, 0.44207
deltaT = 2.96686e-06
Time = 7.03313819807e-05

Calculating Fluxes
RK2SSP: step 1
Solving compressibleSystem:

RK2SSP: step 2
Solving compressibleSystem:

Post-updating compressibleSystem:

max(p): 5.12574e+07, min(p): 101298
max(T): 3105.41, min(T): 287.926
ExecutionTime = 3.44 s  ClockTime = 3 s

Selected 29 cells for refinement out of 22145.
Refined from 22145 to 22348 cells.
Selected 0 split points out of a possible 478.
Maximum imbalance = 3.60659 %
Courant Number Mean/Max = 0.00860135, 0.46151
deltaT = 2.96686e-06
Time = 7.32982437826e-05

Calculating Fluxes
RK2SSP: step 1
Solving compressibleSystem:

RK2SSP: step 2
Solving compressibleSystem:

Post-updating compressibleSystem:

max(p): 4.61507e+07, min(p): 101298
max(T): 3077.89, min(T): 287.926
ExecutionTime = 3.52 s  ClockTime = 3 s

Courant Number Mean/Max = 0.00860856, 0.448941
deltaT = 2.96686e-06
Time = 7.62651055846e-05

Calculating Fluxes
RK2SSP: step 1
Solving compressibleSystem:

RK2SSP: step 2
Solving compressibleSystem:

Post-updating compressibleSystem:

max(p): 4.16965e+07, min(p): 101298
max(T): 3068.2, min(T): 287.926
ExecutionTime = 3.59 s  ClockTime = 3 s

Selected 3 cells for refinement out of 22348.
Refined from 22348 to 22369 cells.
Selected 0 split points out of a possible 480.
Courant Number Mean/Max = 0.00861721, 0.437914
deltaT = 2.96686e-06
Time = 7.92319673865e-05

Calculating Fluxes
RK2SSP: step 1
Solving compressibleSystem:

RK2SSP: step 2
Solving compressibleSystem:

Post-updating compressibleSystem:

max(p): 3.77783e+07, min(p): 101298
max(T): 3140.83, min(T): 287.926
ExecutionTime = 3.67 s  ClockTime = 3 s

Courant Number Mean/Max = 0.00862514, 0.427688
deltaT = 2.96686e-06
Time = 8.21988291884e-05

Calculating Fluxes
RK2SSP: step 1
Solving compressibleSystem:

RK2SSP: step 2
Solving compressibleSystem:

Post-updating compressibleSystem:

max(p): 3.43118e+07, min(p): 101298
max(T): 3203.21, min(T): 287.926
ExecutionTime = 3.74 s  ClockTime = 3 s

Selected 25 cells for refinement out of 22369.
Refined from 22369 to 22544 cells.
Selected 0 split points out of a possible 501.
Maximum imbalance = 4.6753 %
Courant Number Mean/Max = 0.00864272, 0.417884
deltaT = 2.96686e-06
Time = 8.51656909904e-05

Calculating Fluxes
RK2SSP: step 1
Solving compressibleSystem:

RK2SSP: step 2
Solving compressibleSystem:

Post-updating compressibleSystem:

max(p): 3.12322e+07, min(p): 101298
max(T): 3232.87, min(T): 287.926
ExecutionTime = 3.82 s  ClockTime = 3 s

Courant Number Mean/Max = 0.00865048, 0.408331
deltaT = 2.96686e-06
Time = 8.81325527923e-05

Calculating Fluxes
RK2SSP: step 1
Solving compressibleSystem:

RK2SSP: step 2
Solving compressibleSystem:

Post-updating compressibleSystem:

max(p): 2.84873e+07, min(p): 101298
max(T): 3232.05, min(T): 287.926
ExecutionTime = 3.89 s  ClockTime = 3 s

Selected 50 cells for refinement out of 22544.
Refined from 22544 to 22894 cells.
Selected 0 split points out of a possible 548.
Courant Number Mean/Max = 0.00868187, 0.398946
deltaT = 2.96686e-06
Time = 9.10994145942e-05

Calculating Fluxes
RK2SSP: step 1
Solving compressibleSystem:

RK2SSP: step 2
Solving compressibleSystem:

Post-updating compressibleSystem:

max(p): 2.60341e+07, min(p): 101298
max(T): 3205.15, min(T): 287.926
ExecutionTime = 3.98 s  ClockTime = 4 s

Courant Number Mean/Max = 0.00868956, 0.389749
deltaT = 2.96686e-06
Time = 9.40662763961e-05

Calculating Fluxes
RK2SSP: step 1
Solving compressibleSystem:

RK2SSP: step 2
Solving compressibleSystem:

Post-updating compressibleSystem:

max(p): 2.38361e+07, min(p): 101298
max(T): 3155.76, min(T): 287.926
ExecutionTime = 4.05 s  ClockTime = 4 s

Selected 16 cells for refinement out of 22894.
Refined from 22894 to 23006 cells.
Selected 0 split points out of a possible 563.
Maximum imbalance = 7.31983 %
Courant Number Mean/Max = 0.00870308, 0.381238
deltaT = 2.96686e-06
Time = 9.70331381981e-05

Calculating Fluxes
RK2SSP: step 1
Solving compressibleSystem:

RK2SSP: step 2
Solving compressibleSystem:

Post-updating compressibleSystem:

max(p): 2.18623e+07, min(p): 101298
max(T): 3088.96, min(T): 287.926
ExecutionTime = 4.14 s  ClockTime = 4 s

Courant Number Mean/Max = 0.00871131, 0.373654
deltaT = 2.96686e-06
Time = 0.0001

Calculating Fluxes
RK2SSP: step 1
Solving compressibleSystem:

RK2SSP: step 2
Solving compressibleSystem:

Post-updating compressibleSystem:

max(p): 2.0086e+07, min(p): 101298
max(T): 3073.91, min(T): 287.926
ExecutionTime = 4.3 s  ClockTime = 4 s

Selected 25 cells for refinement out of 23006.
Refined from 23006 to 23181 cells.
Selected 0 split points out of a possible 588.
Courant Number Mean/Max = 0.00873196, 0.366227
deltaT = 3.33333e-06
Time = 0.000103333333333

Calculating Fluxes
RK2SSP: step 1
Solving compressibleSystem:

RK2SSP: step 2
Solving compressibleSystem:

Post-updating compressibleSystem:

max(p): 1.82984e+07, min(p): 101298
max(T): 3094.32, min(T): 287.926
ExecutionTime = 4.45 s  ClockTime = 4 s

Courant Number Mean/Max = 0.00982126, 0.402306
deltaT = 3.58974e-06
Time = 0.000106923076923

Calculating Fluxes
RK2SSP: step 1
Solving compressibleSystem:

RK2SSP: step 2
Solving compressibleSystem:

Post-updating compressibleSystem:

max(p): 1.65879e+07, min(p): 101298
max(T): 3142.43, min(T): 287.926
ExecutionTime = 4.52 s  ClockTime = 4 s

Selected 30 cells for refinement out of 23181.
Refined from 23181 to 23391 cells.
Selected 0 split points out of a possible 616.
Maximum imbalance = 11.2992 %
Courant Number Mean/Max = 0.010609, 0.423007
deltaT = 3.91608e-06
Time = 0.000110839160839

Calculating Fluxes
RK2SSP: step 1
Solving compressibleSystem:

RK2SSP: step 2
Solving compressibleSystem:

Post-updating compressibleSystem:

max(p): 1.49415e+07, min(p): 101298
max(T): 3162.88, min(T): 287.926
ExecutionTime = 4.6 s  ClockTime = 4 s

Courant Number Mean/Max = 0.0115883, 0.449677
deltaT = 4.3512e-06
Time = 0.00011519036519

Calculating Fluxes
RK2SSP: step 1
Solving compressibleSystem:

RK2SSP: step 2
Solving compressibleSystem:

Post-updating compressibleSystem:

max(p): 1.33427e+07, min(p): 101298
max(T): 3149.88, min(T): 287.926
ExecutionTime = 4.67 s  ClockTime = 4 s

Selected 37 cells for refinement out of 23391.
Refined from 23391 to 23650 cells.
Selected 0 split points out of a possible 653.
Courant Number Mean/Max = 0.0129175, 0.485571
deltaT = 4.3512e-06
Time = 0.000119541569542

Calculating Fluxes
RK2SSP: step 1
Solving compressibleSystem:

RK2SSP: step 2
Solving compressibleSystem:

Post-updating compressibleSystem:

max(p): 1.19492e+07, min(p): 101298
max(T): 3105.58, min(T): 287.926
ExecutionTime = 4.79 s  ClockTime = 4 s

Courant Number Mean/Max = 0.0129364, 0.472014
deltaT = 4.3512e-06
Time = 0.000123892773893

Calculating Fluxes
RK2SSP: step 1
Solving compressibleSystem:

RK2SSP: step 2
Solving compressibleSystem:

Post-updating compressibleSystem:

max(p): 1.07305e+07, min(p): 101298
max(T): 3068.32, min(T): 287.926
ExecutionTime = 4.88 s  ClockTime = 4 s

Selected 20 cells for refinement out of 23650.
Refined from 23650 to 23790 cells.
Selected 0 split points out of a possible 668.
Maximum imbalance = 14.0227 %
Courant Number Mean/Max = 0.0129642, 0.459027
deltaT = 4.3512e-06
Time = 0.000128243978244

Calculating Fluxes
RK2SSP: step 1
Solving compressibleSystem:

RK2SSP: step 2
Solving compressibleSystem:

Post-updating compressibleSystem:

max(p): 9.6612e+06, min(p): 101298
max(T): 3039.43, min(T): 287.926
ExecutionTime = 4.97 s  ClockTime = 4 s

Courant Number Mean/Max = 0.0129837, 0.446697
deltaT = 4.3512e-06
Time = 0.000132595182595

Calculating Fluxes
RK2SSP: step 1
Solving compressibleSystem:

RK2SSP: step 2
Solving compressibleSystem:

Post-updating compressibleSystem:

max(p): 8.99899e+06, min(p): 101298
max(T): 3008.34, min(T): 287.926
ExecutionTime = 5.05 s  ClockTime = 5 s

Selected 43 cells for refinement out of 23790.
Refined from 23790 to 24091 cells.
Selected 0 split points out of a possible 707.
Courant Number Mean/Max = 0.0130227, 0.435029
deltaT = 4.3512e-06
Time = 0.000136946386946

Calculating Fluxes
RK2SSP: step 1
Solving compressibleSystem:

RK2SSP: step 2
Solving compressibleSystem:

Post-updating compressibleSystem:

max(p): 9.14399e+06, min(p): 101298
max(T): 3046.52, min(T): 287.926
ExecutionTime = 5.14 s  ClockTime = 5 s

Courant Number Mean/Max = 0.0130424, 0.424003
deltaT = 4.3512e-06
Time = 0.000141297591298

Calculating Fluxes
RK2SSP: step 1
Solving compressibleSystem:

RK2SSP: step 2
Solving compressibleSystem:

Post-updating compressibleSystem:

max(p): 9.27241e+06, min(p): 101298
max(T): 3056.38, min(T): 287.926
ExecutionTime = 5.22 s  ClockTime = 5 s

Selected 21 cells for refinement out of 24091.
Refined from 24091 to 24238 cells.
Selected 0 split points out of a possible 728.
Maximum imbalance = 17.4602 %
hexRefRefinementHistory : found refinementHistory
Mapping the fields ...
Distributing the mesh ...
Successfully distributed mesh
New max imbalance: 0.957175%
Distributing ...
Courant Number Mean/Max = 0.0130723, 0.413613
deltaT = 4.3512e-06
Time = 0.000145648795649

Calculating Fluxes
RK2SSP: step 1
Solving compressibleSystem:

RK2SSP: step 2
Solving compressibleSystem:

Post-updating compressibleSystem:

max(p): 9.38266e+06, min(p): 101298
max(T): 3038.93, min(T): 287.926
ExecutionTime = 5.49 s  ClockTime = 5 s

Courant Number Mean/Max = 0.0130923, 0.403827
deltaT = 4.3512e-06
Time = 0.00015

Calculating Fluxes
RK2SSP: step 1
Solving compressibleSystem:

RK2SSP: step 2
Solving compressibleSystem:

Post-updating compressibleSystem:

max(p): 9.47171e+06, min(p): 101298
max(T): 3020.16, min(T): 287.926
ExecutionTime = 5.63 s  ClockTime = 5 s

Selected 41 cells for refinement out of 24238.
Refined from 24238 to 24525 cells.
Selected 0 split points out of a possible 760.
Courant Number Mean/Max = 0.0131361, 0.394814
deltaT = 4.54545e-06
Time = 0.000154545454545

Calculating Fluxes
RK2SSP: step 1
Solving compressibleSystem:

RK2SSP: step 2
Solving compressibleSystem:

Post-updating compressibleSystem:

max(p): 9.54108e+06, min(p): 101298
max(T): 3009.99, min(T): 287.926
ExecutionTime = 5.75 s  ClockTime = 5 s

Courant Number Mean/Max = 0.0137447, 0.403475
deltaT = 5.05051e-06
Time = 0.000159595959596

Calculating Fluxes
RK2SSP: step 1
Solving compressibleSystem:

RK2SSP: step 2
Solving compressibleSystem:

Post-updating compressibleSystem:

max(p): 9.58932e+06, min(p): 101298
max(T): 2978.49, min(T): 287.926
ExecutionTime = 5.82 s  ClockTime = 5 s

Selected 34 cells for refinement out of 24525.
Refined from 24525 to 24763 cells.
Selected 0 split points out of a possible 787.
Maximum imbalance = 3.50927 %
Courant Number Mean/Max = 0.0153233, 0.438676
deltaT = 5.05051e-06
Time = 0.000164646464646

Calculating Fluxes
RK2SSP: step 1
Solving compressibleSystem:

RK2SSP: step 2
Solving compressibleSystem:

Post-updating compressibleSystem:

max(p): 9.60779e+06, min(p): 101298
max(T): 2976.24, min(T): 287.926
ExecutionTime = 5.92 s  ClockTime = 5 s

Courant Number Mean/Max = 0.015351, 0.429777
deltaT = 5.05051e-06
Time = 0.000169696969697

Calculating Fluxes
RK2SSP: step 1
Solving compressibleSystem:

RK2SSP: step 2
Solving compressibleSystem:

Post-updating compressibleSystem:

max(p): 9.59791e+06, min(p): 101298
max(T): 2976.14, min(T): 287.926
ExecutionTime = 6.03 s  ClockTime = 6 s

Selected 24 cells for refinement out of 24763.
Refined from 24763 to 24931 cells.
Selected 0 split points out of a possible 807.
Courant Number Mean/Max = 0.0153935, 0.421165
deltaT = 5.05051e-06
Time = 0.000174747474747

Calculating Fluxes
RK2SSP: step 1
Solving compressibleSystem:

RK2SSP: step 2
Solving compressibleSystem:

Post-updating compressibleSystem:

max(p): 9.56246e+06, min(p): 101298
max(T): 2956.27, min(T): 287.926
ExecutionTime = 6.18 s  ClockTime = 6 s

Courant Number Mean/Max = 0.0154217, 0.412847
deltaT = 5.05051e-06
Time = 0.000179797979798

Calculating Fluxes
RK2SSP: step 1
Solving compressibleSystem:

RK2SSP: step 2
Solving compressibleSystem:

Post-updating compressibleSystem:

max(p): 9.50454e+06, min(p): 101298
max(T): 2952.12, min(T): 287.926
ExecutionTime = 6.26 s  ClockTime = 6 s

Selected 65 cells for refinement out of 24931.
Refined from 24931 to 25386 cells.
Selected 0 split points out of a possible 866.
Maximum imbalance = 9.07587 %
Courant Number Mean/Max = 0.015492, 0.404793
deltaT = 5.05051e-06
Time = 0.000184848484848

Calculating Fluxes
RK2SSP: step 1
Solving compressibleSystem:

RK2SSP: step 2
Solving compressibleSystem:

Post-updating compressibleSystem:

max(p): 9.4271e+06, min(p): 101298
max(T): 2969.22, min(T): 287.926
ExecutionTime = 6.36 s  ClockTime = 6 s

Courant Number Mean/Max = 0.0155202, 0.39693
deltaT = 5.05051e-06
Time = 0.000189898989899

Calculating Fluxes
RK2SSP: step 1
Solving compressibleSystem:

RK2SSP: step 2
Solving compressibleSystem:

Post-updating compressibleSystem:

max(p): 9.33296e+06, min(p): 101298
max(T): 2973.58, min(T): 287.926
ExecutionTime = 6.43 s  ClockTime = 6 s

Selected 60 cells for refinement out of 25386.
Refined from 25386 to 25806 cells.
Selected 0 split points out of a possible 923.
Courant Number Mean/Max = 0.0155925, 0.389231
deltaT = 5.05051e-06
Time = 0.000194949494949

Calculating Fluxes
RK2SSP: step 1
Solving compressibleSystem:

RK2SSP: step 2
Solving compressibleSystem:

Post-updating compressibleSystem:

max(p): 9.22479e+06, min(p): 101298
max(T): 2956.97, min(T): 287.926
ExecutionTime = 6.54 s  ClockTime = 6 s

Courant Number Mean/Max = 0.0156209, 0.381985
deltaT = 5.05051e-06
Time = 0.0002

Calculating Fluxes
RK2SSP: step 1
Solving compressibleSystem:

RK2SSP: step 2
Solving compressibleSystem:

Post-updating compressibleSystem:

max(p): 9.10467e+06, min(p): 101298
max(T): 2949.11, min(T): 287.926
ExecutionTime = 6.71 s  ClockTime = 6 s

Selected 15 cells for refinement out of 25806.
Refined from 25806 to 25911 cells.
Selected 0 split points out of a possible 938.
Maximum imbalance = 13.3495 %
Courant Number Mean/Max = 0.0156568, 0.375956
deltaT = 5.55556e-06
Time = 0.000205555555556

Calculating Fluxes
RK2SSP: step 1
Solving compressibleSystem:

RK2SSP: step 2
Solving compressibleSystem:

Post-updating compressibleSystem:

max(p): 8.96693e+06, min(p): 101298
max(T): 2928.93, min(T): 287.926
ExecutionTime = 6.87 s  ClockTime = 6 s

Courant Number Mean/Max = 0.017257, 0.408044
deltaT = 5.55556e-06
Time = 0.000211111111111

Calculating Fluxes
RK2SSP: step 1
Solving compressibleSystem:

RK2SSP: step 2
Solving compressibleSystem:

Post-updating compressibleSystem:

max(p): 8.82424e+06, min(p): 101298
max(T): 2964.56, min(T): 287.926
ExecutionTime = 6.95 s  ClockTime = 6 s

Selected 38 cells for refinement out of 25911.
Refined from 25911 to 26177 cells.
Selected 0 split points out of a possible 976.
Courant Number Mean/Max = 0.0173232, 0.403379
deltaT = 5.55556e-06
Time = 0.000216666666667

Calculating Fluxes
RK2SSP: step 1
Solving compressibleSystem:

RK2SSP: step 2
Solving compressibleSystem:

Post-updating compressibleSystem:

max(p): 8.67739e+06, min(p): 101298
max(T): 2966.1, min(T): 287.926
ExecutionTime = 7.09 s  ClockTime = 7 s

Courant Number Mean/Max = 0.0173576, 0.399018
deltaT = 5.55556e-06
Time = 0.000222222222222

Calculating Fluxes
RK2SSP: step 1
Solving compressibleSystem:

RK2SSP: step 2
Solving compressibleSystem:

Post-updating compressibleSystem:

max(p): 8.5221e+06, min(p): 101298
max(T): 2957.62, min(T): 287.926
ExecutionTime = 7.18 s  ClockTime = 7 s

Selected 40 cells for refinement out of 26177.
Refined from 26177 to 26457 cells.
Selected 0 split points out of a possible 1016.
Maximum imbalance = 17.0427 %
hexRefRefinementHistory : found refinementHistory
Mapping the fields ...
Distributing the mesh ...
Successfully distributed mesh
New max imbalance: 0.94115%
Distributing ...
Courant Number Mean/Max = 0.0174315, 0.394936
deltaT = 5.55556e-06
Time = 0.000227777777778

Calculating Fluxes
RK2SSP: step 1
Solving compressibleSystem:

RK2SSP: step 2
Solving compressibleSystem:

Post-updating compressibleSystem:

max(p): 8.35787e+06, min(p): 101298
max(T): 2934.59, min(T): 287.926
ExecutionTime = 7.47 s  ClockTime = 7 s

Courant Number Mean/Max = 0.0174663, 0.391109
deltaT = 5.55556e-06
Time = 0.000233333333333

Calculating Fluxes
RK2SSP: step 1
Solving compressibleSystem:

RK2SSP: step 2
Solving compressibleSystem:

Post-updating compressibleSystem:

max(p): 8.32451e+06, min(p): 101298
max(T): 2936.69, min(T): 287.926
ExecutionTime = 7.55 s  ClockTime = 7 s

Selected 49 cells for refinement out of 26457.
Refined from 26457 to 26800 cells.
Selected 0 split points out of a possible 1055.
Courant Number Mean/Max = 0.017534, 0.387487
deltaT = 5.55556e-06
Time = 0.000238888888889

Calculating Fluxes
RK2SSP: step 1
Solving compressibleSystem:

RK2SSP: step 2
Solving compressibleSystem:

Post-updating compressibleSystem:

max(p): 8.37957e+06, min(p): 101298
max(T): 2959.54, min(T): 284.541
ExecutionTime = 7.66 s  ClockTime = 7 s

Courant Number Mean/Max = 0.0175687, 0.384054
deltaT = 5.55556e-06
Time = 0.000244444444444

Calculating Fluxes
RK2SSP: step 1
Solving compressibleSystem:

RK2SSP: step 2
Solving compressibleSystem:

Post-updating compressibleSystem:

max(p): 8.31206e+06, min(p): 101298
max(T): 2971.39, min(T): 280.108
ExecutionTime = 7.74 s  ClockTime = 7 s

Selected 58 cells for refinement out of 26800.
Refined from 26800 to 27206 cells.
Selected 0 split points out of a possible 1108.
Maximum imbalance = 5.61641 %
Courant Number Mean/Max = 0.0176425, 0.380804
deltaT = 5.55556e-06
Time = 0.00025

Calculating Fluxes
RK2SSP: step 1
Solving compressibleSystem:

RK2SSP: step 2
Solving compressibleSystem:

Post-updating compressibleSystem:

max(p): 8.13749e+06, min(p): 101298
max(T): 2959.43, min(T): 275.952
ExecutionTime = 7.95 s  ClockTime = 7 s

Courant Number Mean/Max = 0.017677, 0.377732
deltaT = 6.25e-06
Time = 0.00025625

Calculating Fluxes
RK2SSP: step 1
Solving compressibleSystem:

RK2SSP: step 2
Solving compressibleSystem:

Post-updating compressibleSystem:

max(p): 8.02651e+06, min(p): 101298
max(T): 2930.04, min(T): 270.914
ExecutionTime = 8.09 s  ClockTime = 8 s

Selected 57 cells for refinement out of 27206.
Refined from 27206 to 27605 cells.
Selected 0 split points out of a possible 1157.
Courant Number Mean/Max = 0.0199775, 0.421276
deltaT = 6.25e-06
Time = 0.0002625

Calculating Fluxes
RK2SSP: step 1
Solving compressibleSystem:

RK2SSP: step 2
Solving compressibleSystem:

Post-updating compressibleSystem:

max(p): 8.12377e+06, min(p): 101298
max(T): 2939.79, min(T): 265.635
ExecutionTime = 8.21 s  ClockTime = 8 s

Courant Number Mean/Max = 0.0200212, 0.417795
deltaT = 6.25e-06
Time = 0.00026875

Calculating Fluxes
RK2SSP: step 1
Solving compressibleSystem:

RK2SSP: step 2
Solving compressibleSystem:

Post-updating compressibleSystem:

max(p): 8.14638e+06, min(p): 101298
max(T): 2965.35, min(T): 260.793
ExecutionTime = 8.29 s  ClockTime = 8 s

Selected 43 cells for refinement out of 27605.
Refined from 27605 to 27906 cells.
Selected 0 split points out of a possible 1194.
Maximum imbalance = 8.6863 %
Courant Number Mean/Max = 0.0200945, 0.414469
deltaT = 6.25e-06
Time = 0.000275

Calculating Fluxes
RK2SSP: step 1
Solving compressibleSystem:

RK2SSP: step 2
Solving compressibleSystem:

Post-updating compressibleSystem:

max(p): 8.03096e+06, min(p): 101298
max(T): 2962.31, min(T): 256.325
ExecutionTime = 8.42 s  ClockTime = 8 s

Courant Number Mean/Max = 0.0201379, 0.411278
deltaT = 6.25e-06
Time = 0.00028125

Calculating Fluxes
RK2SSP: step 1
Solving compressibleSystem:

RK2SSP: step 2
Solving compressibleSystem:

Post-updating compressibleSystem:

max(p): 7.7966e+06, min(p): 101298
max(T): 2952.59, min(T): 252.181
ExecutionTime = 8.52 s  ClockTime = 8 s

Selected 31 cells for refinement out of 27906.
Refined from 27906 to 28123 cells.
Selected 0 split points out of a possible 1223.
Courant Number Mean/Max = 0.0202037, 0.408194
deltaT = 6.25e-06
Time = 0.0002875

Calculating Fluxes
RK2SSP: step 1
Solving compressibleSystem:

RK2SSP: step 2
Solving compressibleSystem:

Post-updating compressibleSystem:

max(p): 7.83301e+06, min(p): 101298
max(T): 2925.66, min(T): 248.322
ExecutionTime = 8.64 s  ClockTime = 8 s

Courant Number Mean/Max = 0.0202472, 0.405193
deltaT = 6.25e-06
Time = 0.00029375

Calculating Fluxes
RK2SSP: step 1
Solving compressibleSystem:

RK2SSP: step 2
Solving compressibleSystem:

Post-updating compressibleSystem:

max(p): 7.90763e+06, min(p): 101298
max(T): 2947.04, min(T): 244.715
ExecutionTime = 8.73 s  ClockTime = 8 s

Selected 57 cells for refinement out of 28123.
Refined from 28123 to 28522 cells.
Selected 0 split points out of a possible 1276.
Maximum imbalance = 13.2599 %
Courant Number Mean/Max = 0.0203377, 0.402252
deltaT = 6.25e-06
Time = 0.0003

Calculating Fluxes
RK2SSP: step 1
Solving compressibleSystem:

RK2SSP: step 2
Solving compressibleSystem:

Post-updating compressibleSystem:

max(p): 7.87079e+06, min(p): 101298
max(T): 2963.11, min(T): 241.246
ExecutionTime = 8.95 s  ClockTime = 8 s

Courant Number Mean/Max = 0.0203809, 0.399359
deltaT = 6.25e-06
Time = 0.00030625

Calculating Fluxes
RK2SSP: step 1
Solving compressibleSystem:

RK2SSP: step 2
Solving compressibleSystem:

Post-updating compressibleSystem:

max(p): 7.72221e+06, min(p): 101298
max(T): 2962.1, min(T): 237.218
ExecutionTime = 9.13 s  ClockTime = 9 s

Selected 72 cells for refinement out of 28522.
Refined from 28522 to 29026 cells.
Selected 0 split points out of a possible 1342.
Courant Number Mean/Max = 0.0204802, 0.396491
deltaT = 6.25e-06
Time = 0.0003125

Calculating Fluxes
RK2SSP: step 1
Solving compressibleSystem:

RK2SSP: step 2
Solving compressibleSystem:

Post-updating compressibleSystem:

max(p): 7.51525e+06, min(p): 101298
max(T): 2942.15, min(T): 233.51
ExecutionTime = 9.26 s  ClockTime = 9 s

Courant Number Mean/Max = 0.0205233, 0.394991
deltaT = 6.25e-06
Time = 0.00031875

Calculating Fluxes
RK2SSP: step 1
Solving compressibleSystem:

RK2SSP: step 2
Solving compressibleSystem:

Post-updating compressibleSystem:

max(p): 7.42542e+06, min(p): 101298
max(T): 2910.31, min(T): 230.084
ExecutionTime = 9.35 s  ClockTime = 9 s

Selected 59 cells for refinement out of 29026.
Refined from 29026 to 29439 cells.
Selected 0 split points out of a possible 1393.
Maximum imbalance = 18.7201 %
hexRefRefinementHistory : found refinementHistory
Mapping the fields ...
Distributing the mesh ...
Successfully distributed mesh
New max imbalance: 1.00887%
Distributing ...
Courant Number Mean/Max = 0.0206165, 0.393459
deltaT = 6.25e-06
Time = 0.000325

Calculating Fluxes
RK2SSP: step 1
Solving compressibleSystem:

RK2SSP: step 2
Solving compressibleSystem:

Post-updating compressibleSystem:

max(p): 7.4577e+06, min(p): 101298
max(T): 2938.5, min(T): 226.9
ExecutionTime = 9.68 s  ClockTime = 9 s

Courant Number Mean/Max = 0.0206593, 0.390954
deltaT = 6.25e-06
Time = 0.00033125

Calculating Fluxes
RK2SSP: step 1
Solving compressibleSystem:

RK2SSP: step 2
Solving compressibleSystem:

Post-updating compressibleSystem:

max(p): 7.40228e+06, min(p): 101298
max(T): 2950.24, min(T): 223.925
ExecutionTime = 9.77 s  ClockTime = 9 s

Selected 40 cells for refinement out of 29439.
Refined from 29439 to 29719 cells.
Selected 0 split points out of a possible 1430.
Courant Number Mean/Max = 0.0207407, 0.38834
deltaT = 6.25e-06
Time = 0.0003375

Calculating Fluxes
RK2SSP: step 1
Solving compressibleSystem:

RK2SSP: step 2
Solving compressibleSystem:

Post-updating compressibleSystem:

max(p): 7.25247e+06, min(p): 101298
max(T): 2942.45, min(T): 221.135
ExecutionTime = 9.89 s  ClockTime = 9 s

Courant Number Mean/Max = 0.0207833, 0.388597
deltaT = 6.25e-06
Time = 0.00034375

Calculating Fluxes
RK2SSP: step 1
Solving compressibleSystem:

RK2SSP: step 2
Solving compressibleSystem:

Post-updating compressibleSystem:

max(p): 7.10943e+06, min(p): 101298
max(T): 2926.57, min(T): 218.511
ExecutionTime = 9.98 s  ClockTime = 10 s

Selected 35 cells for refinement out of 29719.
Refined from 29719 to 29964 cells.
Selected 0 split points out of a possible 1461.
Maximum imbalance = 3.54425 %
Courant Number Mean/Max = 0.0208543, 0.387798
deltaT = 6.25e-06
Time = 0.00035

Calculating Fluxes
RK2SSP: step 1
Solving compressibleSystem:

RK2SSP: step 2
Solving compressibleSystem:

Post-updating compressibleSystem:

max(p): 7.0167e+06, min(p): 99111.5
max(T): 2898.43, min(T): 216.034
ExecutionTime = 10.21 s  ClockTime = 10 s

Courant Number Mean/Max = 0.0208967, 0.386043
deltaT = 6.25e-06
Time = 0.00035625

Calculating Fluxes
RK2SSP: step 1
Solving compressibleSystem:

RK2SSP: step 2
Solving compressibleSystem:

Post-updating compressibleSystem:

max(p): 7.01353e+06, min(p): 95445.8
max(T): 2917.43, min(T): 213.69
ExecutionTime = 10.31 s  ClockTime = 10 s

Selected 63 cells for refinement out of 29964.
Refined from 29964 to 30405 cells.
Selected 0 split points out of a possible 1517.
Courant Number Mean/Max = 0.0209807, 0.383437
deltaT = 6.25e-06
Time = 0.0003625

Calculating Fluxes
RK2SSP: step 1
Solving compressibleSystem:

RK2SSP: step 2
Solving compressibleSystem:

Post-updating compressibleSystem:

max(p): 6.93591e+06, min(p): 89448.6
max(T): 2927.31, min(T): 211.463
ExecutionTime = 10.43 s  ClockTime = 10 s

Courant Number Mean/Max = 0.0210228, 0.381056
deltaT = 6.25e-06
Time = 0.00036875

Calculating Fluxes
RK2SSP: step 1
Solving compressibleSystem:

RK2SSP: step 2
Solving compressibleSystem:

Post-updating compressibleSystem:

max(p): 6.79917e+06, min(p): 82179.3
max(T): 2923.73, min(T): 209.339
ExecutionTime = 10.53 s  ClockTime = 10 s

Selected 74 cells for refinement out of 30405.
Refined from 30405 to 30923 cells.
Selected 0 split points out of a possible 1579.
Maximum imbalance = 9.97639 %
Courant Number Mean/Max = 0.021124, 0.381001
deltaT = 6.25e-06
Time = 0.000375

Calculating Fluxes
RK2SSP: step 1
Solving compressibleSystem:

RK2SSP: step 2
Solving compressibleSystem:

Post-updating compressibleSystem:

max(p): 6.69815e+06, min(p): 76127.2
max(T): 2905.55, min(T): 206.693
ExecutionTime = 10.74 s  ClockTime = 10 s

Courant Number Mean/Max = 0.0211657, 0.380011
deltaT = 6.25e-06
Time = 0.00038125

Calculating Fluxes
RK2SSP: step 1
Solving compressibleSystem:

RK2SSP: step 2
Solving compressibleSystem:

Post-updating compressibleSystem:

max(p): 6.52914e+06, min(p): 71216.8
max(T): 2875.54, min(T): 204.17
ExecutionTime = 10.87 s  ClockTime = 10 s

Selected 58 cells for refinement out of 30923.
Refined from 30923 to 31329 cells.
Selected 0 split points out of a possible 1634.
Courant Number Mean/Max = 0.021248, 0.378193
deltaT = 6.25e-06
Time = 0.0003875

Calculating Fluxes
RK2SSP: step 1
Solving compressibleSystem:

RK2SSP: step 2
Solving compressibleSystem:

Post-updating compressibleSystem:

max(p): 6.45739e+06, min(p): 67341.9
max(T): 2884.5, min(T): 201.645
ExecutionTime = 11.01 s  ClockTime = 11 s

Courant Number Mean/Max = 0.0212898, 0.375629
deltaT = 6.25e-06
Time = 0.00039375

Calculating Fluxes
RK2SSP: step 1
Solving compressibleSystem:

RK2SSP: step 2
Solving compressibleSystem:

Post-updating compressibleSystem:

max(p): 6.38154e+06, min(p): 64374.4
max(T): 2895.8, min(T): 198.686
ExecutionTime = 11.12 s  ClockTime = 11 s

Selected 50 cells for refinement out of 31329.
Refined from 31329 to 31679 cells.
Selected 0 split points out of a possible 1683.
Maximum imbalance = 16.1021 %
hexRefRefinementHistory : found refinementHistory
Mapping the fields ...
Distributing the mesh ...
Successfully distributed mesh
New max imbalance: 0.874396%
Distributing ...
Courant Number Mean/Max = 0.0213799, 0.373638
deltaT = 6.25e-06
Time = 0.0004

Calculating Fluxes
RK2SSP: step 1
Solving compressibleSystem:

RK2SSP: step 2
Solving compressibleSystem:

Post-updating compressibleSystem:

max(p): 6.28276e+06, min(p): 62154.7
max(T): 2891.41, min(T): 195.938
ExecutionTime = 11.55 s  ClockTime = 11 s

Courant Number Mean/Max = 0.0214215, 0.373353
deltaT = 6.25e-06
Time = 0.00040625

Calculating Fluxes
RK2SSP: step 1
Solving compressibleSystem:

RK2SSP: step 2
Solving compressibleSystem:

Post-updating compressibleSystem:

max(p): 6.18853e+06, min(p): 60513.8
max(T): 2873.85, min(T): 193.375
ExecutionTime = 11.82 s  ClockTime = 11 s

Selected 43 cells for refinement out of 31679.
Refined from 31679 to 31980 cells.
Selected 0 split points out of a possible 1719.
Courant Number Mean/Max = 0.0214926, 0.372257
deltaT = 6.25e-06
Time = 0.0004125

Calculating Fluxes
RK2SSP: step 1
Solving compressibleSystem:

RK2SSP: step 2
Solving compressibleSystem:

Post-updating compressibleSystem:

max(p): 6.03903e+06, min(p): 56616
max(T): 2847.79, min(T): 190.969
ExecutionTime = 11.97 s  ClockTime = 11 s

Courant Number Mean/Max = 0.0215338, 0.370425
deltaT = 6.25e-06
Time = 0.00041875

Calculating Fluxes
RK2SSP: step 1
Solving compressibleSystem:

RK2SSP: step 2
Solving compressibleSystem:

Post-updating compressibleSystem:

max(p): 5.93629e+06, min(p): 52438.4
max(T): 2840.7, min(T): 188.702
ExecutionTime = 12.08 s  ClockTime = 12 s

Selected 85 cells for refinement out of 31980.
Refined from 31980 to 32575 cells.
Selected 0 split points out of a possible 1799.
Maximum imbalance = 3.09133 %
Courant Number Mean/Max = 0.0216499, 0.367932
deltaT = 6.25e-06
Time = 0.000425

Calculating Fluxes
RK2SSP: step 1
Solving compressibleSystem:

RK2SSP: step 2
Solving compressibleSystem:

Post-updating compressibleSystem:

max(p): 5.85941e+06, min(p): 48913.9
max(T): 2853.36, min(T): 186.554
ExecutionTime = 12.21 s  ClockTime = 12 s

Courant Number Mean/Max = 0.0216908, 0.365778
deltaT = 6.25e-06
Time = 0.00043125

Calculating Fluxes
RK2SSP: step 1
Solving compressibleSystem:

RK2SSP: step 2
Solving compressibleSystem:

Post-updating compressibleSystem:

max(p): 5.79828e+06, min(p): 46023.3
max(T): 2851.58, min(T): 184.515
ExecutionTime = 12.32 s  ClockTime = 12 s

Selected 58 cells for refinement out of 32575.
Refined from 32575 to 32981 cells.
Selected 0 split points out of a possible 1846.
Courant Number Mean/Max = 0.0217831, 0.365427
deltaT = 6.25e-06
Time = 0.0004375

Calculating Fluxes
RK2SSP: step 1
Solving compressibleSystem:

RK2SSP: step 2
Solving compressibleSystem:

Post-updating compressibleSystem:

max(p): 5.71396e+06, min(p): 43710
max(T): 2837.96, min(T): 182.573
ExecutionTime = 12.45 s  ClockTime = 12 s

Courant Number Mean/Max = 0.0218239, 0.364351
deltaT = 6.25e-06
Time = 0.00044375

Calculating Fluxes
RK2SSP: step 1
Solving compressibleSystem:

RK2SSP: step 2
Solving compressibleSystem:

Post-updating compressibleSystem:

max(p): 5.58074e+06, min(p): 41931.4
max(T): 2815.35, min(T): 180.719
ExecutionTime = 12.56 s  ClockTime = 12 s

Selected 64 cells for refinement out of 32981.
Refined from 32981 to 33429 cells.
Selected 0 split points out of a possible 1905.
Maximum imbalance = 7.49349 %
Courant Number Mean/Max = 0.0219199, 0.362628
deltaT = 6.25e-06
Time = 0.00045

Calculating Fluxes
RK2SSP: step 1
Solving compressibleSystem:

RK2SSP: step 2
Solving compressibleSystem:

Post-updating compressibleSystem:

max(p): 5.39926e+06, min(p): 40601.7
max(T): 2784.24, min(T): 178.939
ExecutionTime = 12.82 s  ClockTime = 12 s

Courant Number Mean/Max = 0.0219608, 0.36034
deltaT = 6.25e-06
Time = 0.00045625

Calculating Fluxes
RK2SSP: step 1
Solving compressibleSystem:

RK2SSP: step 2
Solving compressibleSystem:

Post-updating compressibleSystem:

max(p): 5.31218e+06, min(p): 39605.2
max(T): 2800.13, min(T): 177.235
ExecutionTime = 12.96 s  ClockTime = 12 s

Selected 60 cells for refinement out of 33429.
Refined from 33429 to 33849 cells.
Selected 0 split points out of a possible 1960.
Courant Number Mean/Max = 0.022049, 0.358968
deltaT = 6.25e-06
Time = 0.0004625

Calculating Fluxes
RK2SSP: step 1
Solving compressibleSystem:

RK2SSP: step 2
Solving compressibleSystem:

Post-updating compressibleSystem:

max(p): 5.27161e+06, min(p): 38891.4
max(T): 2801.97, min(T): 175.084
ExecutionTime = 13.1 s  ClockTime = 13 s

Courant Number Mean/Max = 0.0220897, 0.358822
deltaT = 6.25e-06
Time = 0.00046875

Calculating Fluxes
RK2SSP: step 1
Solving compressibleSystem:

RK2SSP: step 2
Solving compressibleSystem:

Post-updating compressibleSystem:

max(p): 5.1945e+06, min(p): 36950.8
max(T): 2792.8, min(T): 173.044
ExecutionTime = 13.21 s  ClockTime = 13 s

Selected 34 cells for refinement out of 33849.
Refined from 33849 to 34087 cells.
Selected 0 split points out of a possible 1993.
Maximum imbalance = 11.5792 %
Courant Number Mean/Max = 0.0221579, 0.357998
deltaT = 6.25e-06
Time = 0.000475

Calculating Fluxes
RK2SSP: step 1
Solving compressibleSystem:

RK2SSP: step 2
Solving compressibleSystem:

Post-updating compressibleSystem:

max(p): 5.07892e+06, min(p): 34594.1
max(T): 2773.27, min(T): 171.132
ExecutionTime = 13.4 s  ClockTime = 13 s

Courant Number Mean/Max = 0.0221984, 0.356538
deltaT = 6.25e-06
Time = 0.00048125

Calculating Fluxes
RK2SSP: step 1
Solving compressibleSystem:

RK2SSP: step 2
Solving compressibleSystem:

Post-updating compressibleSystem:

max(p): 4.92761e+06, min(p): 32537.8
max(T): 2745.36, min(T): 169.333
ExecutionTime = 13.51 s  ClockTime = 13 s

Selected 69 cells for refinement out of 34087.
Refined from 34087 to 34570 cells.
Selected 0 split points out of a possible 2057.
Courant Number Mean/Max = 0.0222987, 0.354523
deltaT = 6.25e-06
Time = 0.0004875

Calculating Fluxes
RK2SSP: step 1
Solving compressibleSystem:

RK2SSP: step 2
Solving compressibleSystem:

Post-updating compressibleSystem:

max(p): 4.83746e+06, min(p): 30798.7
max(T): 2731.65, min(T): 167.636
ExecutionTime = 13.66 s  ClockTime = 13 s

Courant Number Mean/Max = 0.0223393, 0.353375
deltaT = 6.25e-06
Time = 0.00049375

Calculating Fluxes
RK2SSP: step 1
Solving compressibleSystem:

RK2SSP: step 2
Solving compressibleSystem:

Post-updating compressibleSystem:

max(p): 4.79192e+06, min(p): 29396.5
max(T): 2739.17, min(T): 165.955
ExecutionTime = 13.79 s  ClockTime = 13 s

Selected 90 cells for refinement out of 34570.
Refined from 34570 to 35200 cells.
Selected 0 split points out of a possible 2139.
Maximum imbalance = 17.2386 %
hexRefRefinementHistory : found refinementHistory
Mapping the fields ...
Distributing the mesh ...
Successfully distributed mesh
New max imbalance: 0.977273%
Distributing ...
Courant Number Mean/Max = 0.0224506, 0.353306
deltaT = 6.25e-06
Time = 0.0005

Calculating Fluxes
RK2SSP: step 1
Solving compressibleSystem:

RK2SSP: step 2
Solving compressibleSystem:

Post-updating compressibleSystem:

max(p): 4.72336e+06, min(p): 28311.8
max(T): 2734.77, min(T): 164.281
ExecutionTime = 14.28 s  ClockTime = 14 s

Courant Number Mean/Max = 0.0224909, 0.352578
deltaT = 7.14286e-06
Time = 0.000507142857143

Calculating Fluxes
RK2SSP: step 1
Solving compressibleSystem:

RK2SSP: step 2
Solving compressibleSystem:

Post-updating compressibleSystem:

max(p): 4.6089e+06, min(p): 27403.8
max(T): 2716.55, min(T): 162.461
ExecutionTime = 14.49 s  ClockTime = 14 s

Selected 56 cells for refinement out of 35200.
Refined from 35200 to 35592 cells.
Selected 0 split points out of a possible 2189.
Courant Number Mean/Max = 0.0258075, 0.401177
deltaT = 7.14286e-06
Time = 0.000514285714286

Calculating Fluxes
RK2SSP: step 1
Solving compressibleSystem:

RK2SSP: step 2
Solving compressibleSystem:

Post-updating compressibleSystem:

max(p): 4.62308e+06, min(p): 26758
max(T): 2765.81, min(T): 160.731
ExecutionTime = 14.71 s  ClockTime = 14 s

Courant Number Mean/Max = 0.0258596, 0.398713
deltaT = 7.14286e-06
Time = 0.000521428571429

Calculating Fluxes
RK2SSP: step 1
Solving compressibleSystem:

RK2SSP: step 2
Solving compressibleSystem:

Post-updating compressibleSystem:

max(p): 5.07145e+06, min(p): 26296.5
max(T): 2837.33, min(T): 159.079
ExecutionTime = 14.83 s  ClockTime = 14 s

Selected 63 cells for refinement out of 35592.
Refined from 35592 to 36033 cells.
Selected 0 split points out of a possible 2248.
Maximum imbalance = 7.85114 %
Courant Number Mean/Max = 0.0259739, 0.396441
deltaT = 7.14286e-06
Time = 0.000528571428571

Calculating Fluxes
RK2SSP: step 1
Solving compressibleSystem:

RK2SSP: step 2
Solving compressibleSystem:

Post-updating compressibleSystem:

max(p): 5.49607e+06, min(p): 25507.1
max(T): 2897.71, min(T): 157.464
ExecutionTime = 14.98 s  ClockTime = 15 s

Courant Number Mean/Max = 0.0260258, 0.396092
deltaT = 7.14286e-06
Time = 0.000535714285714

Calculating Fluxes
RK2SSP: step 1
Solving compressibleSystem:

RK2SSP: step 2
Solving compressibleSystem:

Post-updating compressibleSystem:

max(p): 5.89302e+06, min(p): 24523.9
max(T): 2949.63, min(T): 155.402
ExecutionTime = 15.1 s  ClockTime = 15 s

Selected 60 cells for refinement out of 36033.
Refined from 36033 to 36453 cells.
Selected 0 split points out of a possible 2302.
Courant Number Mean/Max = 0.0261316, 0.394876
deltaT = 7.14286e-06
Time = 0.000542857142857

Calculating Fluxes
RK2SSP: step 1
Solving compressibleSystem:

RK2SSP: step 2
Solving compressibleSystem:

Post-updating compressibleSystem:

max(p): 6.27421e+06, min(p): 23140
max(T): 2994.65, min(T): 153.471
ExecutionTime = 15.25 s  ClockTime = 15 s

Courant Number Mean/Max = 0.0261831, 0.392914
deltaT = 7.14286e-06
Time = 0.00055

Calculating Fluxes
RK2SSP: step 1
Solving compressibleSystem:

RK2SSP: step 2
Solving compressibleSystem:

Post-updating compressibleSystem:

max(p): 6.68117e+06, min(p): 21947.7
max(T): 3033.66, min(T): 151.664
ExecutionTime = 15.53 s  ClockTime = 15 s

Selected 52 cells for refinement out of 36453.
Refined from 36453 to 36817 cells.
Selected 0 split points out of a possible 2347.
Maximum imbalance = 13.7681 %
Courant Number Mean/Max = 0.0262868, 0.390414
deltaT = 7.14286e-06
Time = 0.000557142857143

Calculating Fluxes
RK2SSP: step 1
Solving compressibleSystem:

RK2SSP: step 2
Solving compressibleSystem:

Post-updating compressibleSystem:

max(p): 7.06229e+06, min(p): 20950.1
max(T): 3066.77, min(T): 149.975
ExecutionTime = 15.72 s  ClockTime = 15 s

Courant Number Mean/Max = 0.0263376, 0.388335
deltaT = 7.14286e-06
Time = 0.000564285714286

Calculating Fluxes
RK2SSP: step 1
Solving compressibleSystem:

RK2SSP: step 2
Solving compressibleSystem:

Post-updating compressibleSystem:

max(p): 7.41432e+06, min(p): 20160.2
max(T): 3098.01, min(T): 148.391
ExecutionTime = 15.84 s  ClockTime = 15 s

Selected 68 cells for refinement out of 36817.
Refined from 36817 to 37293 cells.
Selected 0 split points out of a possible 2410.
Courant Number Mean/Max = 0.0264559, 0.387314
deltaT = 7.14286e-06
Time = 0.000571428571429

Calculating Fluxes
RK2SSP: step 1
Solving compressibleSystem:

RK2SSP: step 2
Solving compressibleSystem:

Post-updating compressibleSystem:

max(p): 7.73452e+06, min(p): 19552.9
max(T): 3128.85, min(T): 146.902
ExecutionTime = 16.04 s  ClockTime = 16 s

Courant Number Mean/Max = 0.0265062, 0.386051
deltaT = 7.14286e-06
Time = 0.000578571428571

Calculating Fluxes
RK2SSP: step 1
Solving compressibleSystem:

RK2SSP: step 2
Solving compressibleSystem:

Post-updating compressibleSystem:

max(p): 8.0204e+06, min(p): 19082.4
max(T): 3154.41, min(T): 145.484
ExecutionTime = 16.16 s  ClockTime = 16 s

Selected 95 cells for refinement out of 37293.
Refined from 37293 to 37958 cells.
Selected 0 split points out of a possible 2500.
Maximum imbalance = 21.7451 %
hexRefRefinementHistory : found refinementHistory
Mapping the fields ...
Distributing the mesh ...
Successfully distributed mesh
New max imbalance: 0.737657%
Distributing ...
Courant Number Mean/Max = 0.0266572, 0.384191
deltaT = 7.14286e-06
Time = 0.000585714285714

Calculating Fluxes
RK2SSP: step 1
Solving compressibleSystem:

RK2SSP: step 2
Solving compressibleSystem:

Post-updating compressibleSystem:

max(p): 8.27155e+06, min(p): 18586.7
max(T): 3174.79, min(T): 144.056
ExecutionTime = 16.55 s  ClockTime = 16 s

Courant Number Mean/Max = 0.0267071, 0.382867
deltaT = 7.14286e-06
Time = 0.000592857142857

Calculating Fluxes
RK2SSP: step 1
Solving compressibleSystem:

RK2SSP: step 2
Solving compressibleSystem:

Post-updating compressibleSystem:

max(p): 8.48655e+06, min(p): 17962.1
max(T): 3190.04, min(T): 142.703
ExecutionTime = 16.67 s  ClockTime = 16 s

Selected 78 cells for refinement out of 37958.
Refined from 37958 to 38504 cells.
Selected 0 split points out of a possible 2564.
Courant Number Mean/Max = 0.0268126, 0.38094
deltaT = 7.14286e-06
Time = 0.0006

Calculating Fluxes
RK2SSP: step 1
Solving compressibleSystem:

RK2SSP: step 2
Solving compressibleSystem:

Post-updating compressibleSystem:

max(p): 8.67625e+06, min(p): 17256.9
max(T): 3200.32, min(T): 141.417
ExecutionTime = 16.97 s  ClockTime = 17 s

Courant Number Mean/Max = 0.0268618, 0.378551
deltaT = 7.14286e-06
Time = 0.000607142857143

Calculating Fluxes
RK2SSP: step 1
Solving compressibleSystem:

RK2SSP: step 2
Solving compressibleSystem:

Post-updating compressibleSystem:

max(p): 8.895e+06, min(p): 16619.5
max(T): 3205.95, min(T): 140.192
ExecutionTime = 17.21 s  ClockTime = 17 s

Selected 62 cells for refinement out of 38504.
Refined from 38504 to 38938 cells.
Selected 0 split points out of a possible 2619.
Maximum imbalance = 7.17037 %
Courant Number Mean/Max = 0.0269596, 0.377084
deltaT = 7.14286e-06
Time = 0.000614285714286

Calculating Fluxes
RK2SSP: step 1
Solving compressibleSystem:

RK2SSP: step 2
Solving compressibleSystem:

Post-updating compressibleSystem:

max(p): 9.07829e+06, min(p): 16072.4
max(T): 3211.46, min(T): 138.933
ExecutionTime = 17.4 s  ClockTime = 17 s

Courant Number Mean/Max = 0.0270077, 0.376469
deltaT = 7.14286e-06
Time = 0.000621428571429

Calculating Fluxes
RK2SSP: step 1
Solving compressibleSystem:

RK2SSP: step 2
Solving compressibleSystem:

Post-updating compressibleSystem:

max(p): 9.22523e+06, min(p): 15585.5
max(T): 3216.22, min(T): 137.627
ExecutionTime = 17.55 s  ClockTime = 17 s

Selected 62 cells for refinement out of 38938.
Refined from 38938 to 39372 cells.
Selected 0 split points out of a possible 2672.
Courant Number Mean/Max = 0.0271171, 0.375251
deltaT = 7.14286e-06
Time = 0.000628571428571

Calculating Fluxes
RK2SSP: step 1
Solving compressibleSystem:

RK2SSP: step 2
Solving compressibleSystem:

Post-updating compressibleSystem:

max(p): 9.33963e+06, min(p): 15041.5
max(T): 3216.81, min(T): 136.391
ExecutionTime = 17.71 s  ClockTime = 17 s

Courant Number Mean/Max = 0.0271646, 0.373485
deltaT = 7.14286e-06
Time = 0.000635714285714

Calculating Fluxes
RK2SSP: step 1
Solving compressibleSystem:

RK2SSP: step 2
Solving compressibleSystem:

Post-updating compressibleSystem:

max(p): 9.42376e+06, min(p): 14501.5
max(T): 3213.84, min(T): 135.014
ExecutionTime = 17.85 s  ClockTime = 17 s

Selected 84 cells for refinement out of 39372.
Refined from 39372 to 39960 cells.
Selected 0 split points out of a possible 2749.
Maximum imbalance = 14.5195 %
Courant Number Mean/Max = 0.0272991, 0.371246
deltaT = 7.14286e-06
Time = 0.000642857142857

Calculating Fluxes
RK2SSP: step 1
Solving compressibleSystem:

RK2SSP: step 2
Solving compressibleSystem:

Post-updating compressibleSystem:

max(p): 9.47909e+06, min(p): 13904.6
max(T): 3207.73, min(T): 133.657
ExecutionTime = 18.04 s  ClockTime = 18 s

Courant Number Mean/Max = 0.0273462, 0.368662
deltaT = 7.14286e-06
Time = 0.00065

Calculating Fluxes
RK2SSP: step 1
Solving compressibleSystem:

RK2SSP: step 2
Solving compressibleSystem:

Post-updating compressibleSystem:

max(p): 9.50795e+06, min(p): 13389.1
max(T): 3198.84, min(T): 132.379
ExecutionTime = 18.31 s  ClockTime = 18 s

Selected 75 cells for refinement out of 39960.
Refined from 39960 to 40485 cells.
Selected 0 split points out of a possible 2816.
Courant Number Mean/Max = 0.0274573, 0.36774
deltaT = 7.14286e-06
Time = 0.000657142857143

Calculating Fluxes
RK2SSP: step 1
Solving compressibleSystem:

RK2SSP: step 2
Solving compressibleSystem:

Post-updating compressibleSystem:

max(p): 9.51267e+06, min(p): 12950
max(T): 3194.99, min(T): 131.177
ExecutionTime = 18.51 s  ClockTime = 18 s

Courant Number Mean/Max = 0.0275037, 0.366725
deltaT = 7.14286e-06
Time = 0.000664285714286

Calculating Fluxes
RK2SSP: step 1
Solving compressibleSystem:

RK2SSP: step 2
Solving compressibleSystem:

Post-updating compressibleSystem:

max(p): 9.49536e+06, min(p): 12579.6
max(T): 3188.33, min(T): 130.049
ExecutionTime = 18.65 s  ClockTime = 18 s

Selected 67 cells for refinement out of 40485.
Refined from 40485 to 40954 cells.
Selected 0 split points out of a possible 2872.
Maximum imbalance = 19.9443 %
hexRefRefinementHistory : found refinementHistory
Mapping the fields ...
Distributing the mesh ...
Successfully distributed mesh
New max imbalance: 0.986473%
Distributing ...
Courant Number Mean/Max = 0.0276002, 0.365234
deltaT = 7.14286e-06
Time = 0.000671428571429

Calculating Fluxes
RK2SSP: step 1
Solving compressibleSystem:

RK2SSP: step 2
Solving compressibleSystem:

Post-updating compressibleSystem:

max(p): 9.50026e+06, min(p): 12238.8
max(T): 3179.06, min(T): 128.963
ExecutionTime = 19.09 s  ClockTime = 19 s

Courant Number Mean/Max = 0.0276458, 0.363342
deltaT = 7.14286e-06
Time = 0.000678571428571

Calculating Fluxes
RK2SSP: step 1
Solving compressibleSystem:

RK2SSP: step 2
Solving compressibleSystem:

Post-updating compressibleSystem:

max(p): 9.49132e+06, min(p): 11888.1
max(T): 3167.66, min(T): 127.803
ExecutionTime = 19.24 s  ClockTime = 19 s

Selected 70 cells for refinement out of 40954.
Refined from 40954 to 41444 cells.
Selected 0 split points out of a possible 2934.
Courant Number Mean/Max = 0.0277562, 0.361121
deltaT = 7.14286e-06
Time = 0.000685714285714

Calculating Fluxes
RK2SSP: step 1
Solving compressibleSystem:

RK2SSP: step 2
Solving compressibleSystem:

Post-updating compressibleSystem:

max(p): 9.46468e+06, min(p): 11574.2
max(T): 3156.3, min(T): 126.711
ExecutionTime = 19.42 s  ClockTime = 19 s

Courant Number Mean/Max = 0.0278012, 0.358815
deltaT = 7.14286e-06
Time = 0.000692857142857

Calculating Fluxes
RK2SSP: step 1
Solving compressibleSystem:

RK2SSP: step 2
Solving compressibleSystem:

Post-updating compressibleSystem:

max(p): 9.42221e+06, min(p): 11152
max(T): 3148.08, min(T): 125.681
ExecutionTime = 19.56 s  ClockTime = 19 s

Selected 73 cells for refinement out of 41444.
Refined from 41444 to 41955 cells.
Selected 0 split points out of a possible 2993.
Maximum imbalance = 6.88595 %
Courant Number Mean/Max = 0.027911, 0.358056
deltaT = 7.14286e-06
Time = 0.0007

Calculating Fluxes
RK2SSP: step 1
Solving compressibleSystem:

RK2SSP: step 2
Solving compressibleSystem:

Post-updating compressibleSystem:

max(p): 9.36551e+06, min(p): 10767.1
max(T): 3138.46, min(T): 124.709
ExecutionTime = 19.87 s  ClockTime = 19 s

Courant Number Mean/Max = 0.0279555, 0.356847
deltaT = 7.14286e-06
Time = 0.000707142857143

Calculating Fluxes
RK2SSP: step 1
Solving compressibleSystem:

RK2SSP: step 2
Solving compressibleSystem:

Post-updating compressibleSystem:

max(p): 9.29599e+06, min(p): 10430.1
max(T): 3127.87, min(T): 123.789
ExecutionTime = 20.22 s  ClockTime = 20 s

Selected 49 cells for refinement out of 41955.
Refined from 41955 to 42298 cells.
Selected 0 split points out of a possible 3039.
Courant Number Mean/Max = 0.0280397, 0.355257
deltaT = 7.14286e-06
Time = 0.000714285714286

Calculating Fluxes
RK2SSP: step 1
Solving compressibleSystem:

RK2SSP: step 2
Solving compressibleSystem:

Post-updating compressibleSystem:

max(p): 9.21711e+06, min(p): 10129.6
max(T): 3121.37, min(T): 122.913
ExecutionTime = 20.42 s  ClockTime = 20 s

Courant Number Mean/Max = 0.0280832, 0.353357
deltaT = 7.14286e-06
Time = 0.000721428571429

Calculating Fluxes
RK2SSP: step 1
Solving compressibleSystem:

RK2SSP: step 2
Solving compressibleSystem:

Post-updating compressibleSystem:

max(p): 9.13103e+06, min(p): 9856.98
max(T): 3114.72, min(T): 122.059
ExecutionTime = 20.57 s  ClockTime = 20 s

Selected 85 cells for refinement out of 42298.
Refined from 42298 to 42893 cells.
Selected 0 split points out of a possible 3116.
Maximum imbalance = 14.4383 %
Courant Number Mean/Max = 0.0282122, 0.351191
deltaT = 7.14286e-06
Time = 0.000728571428571

Calculating Fluxes
RK2SSP: step 1
Solving compressibleSystem:

RK2SSP: step 2
Solving compressibleSystem:

Post-updating compressibleSystem:

max(p): 9.03795e+06, min(p): 9544.05
max(T): 3106.75, min(T): 121.054
ExecutionTime = 20.77 s  ClockTime = 20 s

Courant Number Mean/Max = 0.0282552, 0.348787
deltaT = 7.14286e-06
Time = 0.000735714285714

Calculating Fluxes
RK2SSP: step 1
Solving compressibleSystem:

RK2SSP: step 2
Solving compressibleSystem:

Post-updating compressibleSystem:

max(p): 8.95134e+06, min(p): 9264.43
max(T): 3099.86, min(T): 120.11
ExecutionTime = 20.91 s  ClockTime = 20 s

Selected 75 cells for refinement out of 42893.
Refined from 42893 to 43418 cells.
Selected 0 split points out of a possible 3184.
Courant Number Mean/Max = 0.0283684, 0.34771
deltaT = 7.14286e-06
Time = 0.000742857142857

Calculating Fluxes
RK2SSP: step 1
Solving compressibleSystem:

RK2SSP: step 2
Solving compressibleSystem:

Post-updating compressibleSystem:

max(p): 8.87218e+06, min(p): 9011.36
max(T): 3094.98, min(T): 119.221
ExecutionTime = 21.11 s  ClockTime = 21 s

Courant Number Mean/Max = 0.0284109, 0.346447
deltaT = 7.14286e-06
Time = 0.00075

Calculating Fluxes
RK2SSP: step 1
Solving compressibleSystem:

RK2SSP: step 2
Solving compressibleSystem:

Post-updating compressibleSystem:

max(p): 8.78271e+06, min(p): 8779.38
max(T): 3088.07, min(T): 118.365
ExecutionTime = 21.4 s  ClockTime = 21 s

Selected 81 cells for refinement out of 43418.
Refined from 43418 to 43985 cells.
Selected 0 split points out of a possible 3262.
Maximum imbalance = 21.6233 %
hexRefRefinementHistory : found refinementHistory
Mapping the fields ...
Distributing the mesh ...
Successfully distributed mesh
New max imbalance: 0.984427%
Distributing ...
Courant Number Mean/Max = 0.0285257, 0.344882
deltaT = 7.14286e-06
Time = 0.000757142857143

Calculating Fluxes
RK2SSP: step 1
Solving compressibleSystem:

RK2SSP: step 2
Solving compressibleSystem:

Post-updating compressibleSystem:

max(p): 8.68383e+06, min(p): 8538.97
max(T): 3079.29, min(T): 117.511
ExecutionTime = 21.9 s  ClockTime = 21 s

Courant Number Mean/Max = 0.0285675, 0.343073
deltaT = 7.14286e-06
Time = 0.000764285714286

Calculating Fluxes
RK2SSP: step 1
Solving compressibleSystem:

RK2SSP: step 2
Solving compressibleSystem:

Post-updating compressibleSystem:

max(p): 8.57585e+06, min(p): 8268.25
max(T): 3071.16, min(T): 116.701
ExecutionTime = 22.04 s  ClockTime = 22 s

Selected 70 cells for refinement out of 43985.
Refined from 43985 to 44475 cells.
Selected 0 split points out of a possible 3326.
Courant Number Mean/Max = 0.0286801, 0.341062
deltaT = 7.14286e-06
Time = 0.000771428571429

Calculating Fluxes
RK2SSP: step 1
Solving compressibleSystem:

RK2SSP: step 2
Solving compressibleSystem:

Post-updating compressibleSystem:

max(p): 8.45939e+06, min(p): 8023.97
max(T): 3066.28, min(T): 115.929
ExecutionTime = 22.24 s  ClockTime = 22 s

Courant Number Mean/Max = 0.0287211, 0.338908
deltaT = 7.14286e-06
Time = 0.000778571428571

Calculating Fluxes
RK2SSP: step 1
Solving compressibleSystem:

RK2SSP: step 2
Solving compressibleSystem:

Post-updating compressibleSystem:

max(p): 8.33518e+06, min(p): 7801.32
max(T): 3059.29, min(T): 115.162
ExecutionTime = 22.39 s  ClockTime = 22 s

Selected 83 cells for refinement out of 44475.
Refined from 44475 to 45056 cells.
Selected 0 split points out of a possible 3404.
Maximum imbalance = 7.35973 %
Courant Number Mean/Max = 0.0288606, 0.337446
deltaT = 7.14286e-06
Time = 0.000785714285714

Calculating Fluxes
RK2SSP: step 1
Solving compressibleSystem:

RK2SSP: step 2
Solving compressibleSystem:

Post-updating compressibleSystem:

max(p): 8.20396e+06, min(p): 7595.81
max(T): 3050.35, min(T): 114.308
ExecutionTime = 22.58 s  ClockTime = 22 s

Courant Number Mean/Max = 0.028901, 0.336213
deltaT = 7.14286e-06
Time = 0.000792857142857

Calculating Fluxes
RK2SSP: step 1
Solving compressibleSystem:

RK2SSP: step 2
Solving compressibleSystem:

Post-updating compressibleSystem:

max(p): 8.06635e+06, min(p): 7399.59
max(T): 3039.63, min(T): 113.483
ExecutionTime = 22.73 s  ClockTime = 22 s

Selected 90 cells for refinement out of 45056.
Refined from 45056 to 45686 cells.
Selected 0 split points out of a possible 3484.
Courant Number Mean/Max = 0.0290345, 0.334747
deltaT = 7.14286e-06
Time = 0.0008

Calculating Fluxes
RK2SSP: step 1
Solving compressibleSystem:

RK2SSP: step 2
Solving compressibleSystem:

Post-updating compressibleSystem:

max(p): 7.92266e+06, min(p): 7172.89
max(T): 3033.5, min(T): 112.704
ExecutionTime = 23.09 s  ClockTime = 23 s

Courant Number Mean/Max = 0.0290744, 0.333093
deltaT = 7.14286e-06
Time = 0.000807142857143

Calculating Fluxes
RK2SSP: step 1
Solving compressibleSystem:

RK2SSP: step 2
Solving compressibleSystem:

Post-updating compressibleSystem:

max(p): 7.79379e+06, min(p): 6965.25
max(T): 3027.48, min(T): 111.838
ExecutionTime = 23.44 s  ClockTime = 23 s

Selected 73 cells for refinement out of 45686.
Refined from 45686 to 46197 cells.
Selected 0 split points out of a possible 3550.
Maximum imbalance = 15.4361 %
hexRefRefinementHistory : found refinementHistory
Mapping the fields ...
Distributing the mesh ...
Successfully distributed mesh
New max imbalance: 0.980583%
Distributing ...
Courant Number Mean/Max = 0.029181, 0.331799
deltaT = 7.14286e-06
Time = 0.000814285714286

Calculating Fluxes
RK2SSP: step 1
Solving compressibleSystem:

RK2SSP: step 2
Solving compressibleSystem:

Post-updating compressibleSystem:

max(p): 7.65944e+06, min(p): 6773.1
max(T): 3019.25, min(T): 110.948
ExecutionTime = 23.92 s  ClockTime = 23 s

Courant Number Mean/Max = 0.0292203, 0.331386
deltaT = 7.14286e-06
Time = 0.000821428571429

Calculating Fluxes
RK2SSP: step 1
Solving compressibleSystem:

RK2SSP: step 2
Solving compressibleSystem:

Post-updating compressibleSystem:

max(p): 7.51962e+06, min(p): 6593.26
max(T): 3008.95, min(T): 110.102
ExecutionTime = 24.07 s  ClockTime = 24 s

Selected 79 cells for refinement out of 46197.
Refined from 46197 to 46750 cells.
Selected 0 split points out of a possible 3620.
Courant Number Mean/Max = 0.0293306, 0.331316
deltaT = 7.14286e-06
Time = 0.000828571428571

Calculating Fluxes
RK2SSP: step 1
Solving compressibleSystem:

RK2SSP: step 2
Solving compressibleSystem:

Post-updating compressibleSystem:

max(p): 7.37476e+06, min(p): 6423.06
max(T): 2996.73, min(T): 109.299
ExecutionTime = 24.34 s  ClockTime = 24 s

Courant Number Mean/Max = 0.0293693, 0.330945
deltaT = 7.14286e-06
Time = 0.000835714285714

Calculating Fluxes
RK2SSP: step 1
Solving compressibleSystem:

RK2SSP: step 2
Solving compressibleSystem:

Post-updating compressibleSystem:

max(p): 7.22518e+06, min(p): 6258.5
max(T): 2989.87, min(T): 108.536
ExecutionTime = 24.5 s  ClockTime = 24 s

Selected 73 cells for refinement out of 46750.
Refined from 46750 to 47261 cells.
Selected 0 split points out of a possible 3681.
Maximum imbalance = 5.43577 %
Courant Number Mean/Max = 0.0294646, 0.330354
deltaT = 7.14286e-06
Time = 0.000842857142857

Calculating Fluxes
RK2SSP: step 1
Solving compressibleSystem:

RK2SSP: step 2
Solving compressibleSystem:

Post-updating compressibleSystem:

max(p): 7.0715e+06, min(p): 6090.33
max(T): 2983.14, min(T): 107.81
ExecutionTime = 24.7 s  ClockTime = 24 s

Courant Number Mean/Max = 0.0295029, 0.329573
deltaT = 7.14286e-06
Time = 0.00085

Calculating Fluxes
RK2SSP: step 1
Solving compressibleSystem:

RK2SSP: step 2
Solving compressibleSystem:

Post-updating compressibleSystem:

max(p): 6.91939e+06, min(p): 5932.51
max(T): 2974.13, min(T): 107.119
ExecutionTime = 25.03 s  ClockTime = 25 s

Selected 64 cells for refinement out of 47261.
Refined from 47261 to 47709 cells.
Selected 0 split points out of a possible 3740.
Courant Number Mean/Max = 0.0295996, 0.328604
deltaT = 7.14286e-06
Time = 0.000857142857143

Calculating Fluxes
RK2SSP: step 1
Solving compressibleSystem:

RK2SSP: step 2
Solving compressibleSystem:

Post-updating compressibleSystem:

max(p): 6.80149e+06, min(p): 5773.88
max(T): 2963.01, min(T): 106.457
ExecutionTime = 25.31 s  ClockTime = 25 s

Courant Number Mean/Max = 0.0296375, 0.327991
deltaT = 7.14286e-06
Time = 0.000864285714286

Calculating Fluxes
RK2SSP: step 1
Solving compressibleSystem:

RK2SSP: step 2
Solving compressibleSystem:

Post-updating compressibleSystem:

max(p): 6.71146e+06, min(p): 5625.5
max(T): 2949.92, min(T): 105.822
ExecutionTime = 25.5 s  ClockTime = 25 s

Selected 78 cells for refinement out of 47709.
Refined from 47709 to 48255 cells.
Selected 0 split points out of a possible 3813.
Maximum imbalance = 10.1399 %
Courant Number Mean/Max = 0.029748, 0.327698
deltaT = 7.14286e-06
Time = 0.000871428571429

Calculating Fluxes
RK2SSP: step 1
Solving compressibleSystem:

RK2SSP: step 2
Solving compressibleSystem:

Post-updating compressibleSystem:

max(p): 6.61318e+06, min(p): 5480.41
max(T): 2938.41, min(T): 105.213
ExecutionTime = 25.75 s  ClockTime = 25 s

Courant Number Mean/Max = 0.0297858, 0.327172
deltaT = 7.14286e-06
Time = 0.000878571428571

Calculating Fluxes
RK2SSP: step 1
Solving compressibleSystem:

RK2SSP: step 2
Solving compressibleSystem:

Post-updating compressibleSystem:

max(p): 6.54173e+06, min(p): 5328.06
max(T): 2931.58, min(T): 104.627
ExecutionTime = 25.91 s  ClockTime = 25 s

Selected 82 cells for refinement out of 48255.
Refined from 48255 to 48829 cells.
Selected 0 split points out of a possible 3884.
Courant Number Mean/Max = 0.0299053, 0.326427
deltaT = 7.14286e-06
Time = 0.000885714285714

Calculating Fluxes
RK2SSP: step 1
Solving compressibleSystem:

RK2SSP: step 2
Solving compressibleSystem:

Post-updating compressibleSystem:

max(p): 6.45488e+06, min(p): 5185.65
max(T): 2922.42, min(T): 104.062
ExecutionTime = 26.13 s  ClockTime = 26 s

Courant Number Mean/Max = 0.029943, 0.325496
deltaT = 7.14286e-06
Time = 0.000892857142857

Calculating Fluxes
RK2SSP: step 1
Solving compressibleSystem:

RK2SSP: step 2
Solving compressibleSystem:

Post-updating compressibleSystem:

max(p): 6.35296e+06, min(p): 5051.69
max(T): 2911.1, min(T): 103.515
ExecutionTime = 26.3 s  ClockTime = 26 s

Selected 52 cells for refinement out of 48829.
Refined from 48829 to 49193 cells.
Selected 0 split points out of a possible 3927.
Maximum imbalance = 15.2115 %
hexRefRefinementHistory : found refinementHistory
Mapping the fields ...
Distributing the mesh ...
Successfully distributed mesh
New max imbalance: 0.754172%
Distributing ...
Courant Number Mean/Max = 0.0300229, 0.324396
deltaT = 7.14286e-06
Time = 0.0009

Calculating Fluxes
RK2SSP: step 1
Solving compressibleSystem:

RK2SSP: step 2
Solving compressibleSystem:

Post-updating compressibleSystem:

max(p): 6.2734e+06, min(p): 4924.81
max(T): 2897.78, min(T): 102.984
ExecutionTime = 26.93 s  ClockTime = 26 s

Courant Number Mean/Max = 0.0300604, 0.323481
deltaT = 7.14286e-06
Time = 0.000907142857143

Calculating Fluxes
RK2SSP: step 1
Solving compressibleSystem:

RK2SSP: step 2
Solving compressibleSystem:

Post-updating compressibleSystem:

max(p): 6.19481e+06, min(p): 4803.91
max(T): 2882.59, min(T): 102.415
ExecutionTime = 27.3 s  ClockTime = 27 s

Selected 74 cells for refinement out of 49193.
Refined from 49193 to 49711 cells.
Selected 0 split points out of a possible 3993.
Courant Number Mean/Max = 0.0301614, 0.323116
deltaT = 7.14286e-06
Time = 0.000914285714286

Calculating Fluxes
[...]

Courant Number Mean/Max = 0.0633862, 0.459472
deltaT = 8.33333e-06
Time = 0.00310833333333

Calculating Fluxes
RK2SSP: step 1
Solving compressibleSystem:

RK2SSP: step 2
Solving compressibleSystem:

Post-updating compressibleSystem:

max(p): 756785, min(p): 1533.42
max(T): 1270.37, min(T): 228.255
ExecutionTime = 163.37 s  ClockTime = 163 s

Selected 115 cells for refinement out of 159212.
Refined from 159212 to 160017 cells.
Selected 0 split points out of a possible 18081.
Courant Number Mean/Max = 0.0635418, 0.462632
deltaT = 8.33333e-06
Time = 0.00311666666667

Calculating Fluxes
RK2SSP: step 1
Solving compressibleSystem:

RK2SSP: step 2
Solving compressibleSystem:

Post-updating compressibleSystem:

max(p): 755353, min(p): 1596.63
max(T): 1267.03, min(T): 233.359
ExecutionTime = 164 s  ClockTime = 164 s

Courant Number Mean/Max = 0.063573, 0.465376
deltaT = 8.33333e-06
Time = 0.003125

Calculating Fluxes
RK2SSP: step 1
Solving compressibleSystem:

RK2SSP: step 2
Solving compressibleSystem:

Post-updating compressibleSystem:

max(p): 753230, min(p): 1693.71
max(T): 1263.64, min(T): 239.997
ExecutionTime = 164.61 s  ClockTime = 164 s

Selected 158 cells for refinement out of 160017.
Refined from 160017 to 161123 cells.
Selected 0 split points out of a possible 18214.
Maximum imbalance = 3.45885 %
Courant Number Mean/Max = 0.0637677, 0.467753
deltaT = 8.33333e-06
Time = 0.00313333333333

Calculating Fluxes
RK2SSP: step 1
Solving compressibleSystem:

RK2SSP: step 2
Solving compressibleSystem:

Post-updating compressibleSystem:

max(p): 752594, min(p): 1837.9
max(T): 1260.18, min(T): 247.396
ExecutionTime = 165.24 s  ClockTime = 165 s

Courant Number Mean/Max = 0.0637985, 0.46981
deltaT = 8.33333e-06
Time = 0.00314166666667

Calculating Fluxes
RK2SSP: step 1
Solving compressibleSystem:

RK2SSP: step 2
Solving compressibleSystem:

Post-updating compressibleSystem:

max(p): 751154, min(p): 1977.88
max(T): 1256.68, min(T): 257.184
ExecutionTime = 165.89 s  ClockTime = 166 s

Selected 151 cells for refinement out of 161123.
Refined from 161123 to 162180 cells.
Selected 0 split points out of a possible 18347.
Courant Number Mean/Max = 0.0640019, 0.471597
deltaT = 8.33333e-06
Time = 0.00315

Calculating Fluxes
RK2SSP: step 1
Solving compressibleSystem:

RK2SSP: step 2
Solving compressibleSystem:

Post-updating compressibleSystem:

max(p): 748948, min(p): 2167.72
max(T): 1253.12, min(T): 270.044
ExecutionTime = 167.17 s  ClockTime = 167 s

Courant Number Mean/Max = 0.0640323, 0.473138
deltaT = 8.33333e-06
Time = 0.00315833333333

Calculating Fluxes
RK2SSP: step 1
Solving compressibleSystem:

RK2SSP: step 2
Solving compressibleSystem:

Post-updating compressibleSystem:

max(p): 745966, min(p): 2425.74
max(T): 1249.51, min(T): 286.705
ExecutionTime = 168.01 s  ClockTime = 168 s

Selected 141 cells for refinement out of 162180.
Refined from 162180 to 163167 cells.
Selected 0 split points out of a possible 18475.
Maximum imbalance = 4.17915 %
Courant Number Mean/Max = 0.0642127, 0.47444
deltaT = 8.33333e-06
Time = 0.00316666666667

Calculating Fluxes
RK2SSP: step 1
Solving compressibleSystem:

RK2SSP: step 2
Solving compressibleSystem:

Post-updating compressibleSystem:

max(p): 742209, min(p): 2777.47
max(T): 1245.83, min(T): 287.926
ExecutionTime = 168.69 s  ClockTime = 168 s

Courant Number Mean/Max = 0.0642429, 0.475522
deltaT = 8.33333e-06
Time = 0.003175

Calculating Fluxes
RK2SSP: step 1
Solving compressibleSystem:

RK2SSP: step 2
Solving compressibleSystem:

Post-updating compressibleSystem:

max(p): 737698, min(p): 3258.83
max(T): 1242.05, min(T): 287.926
ExecutionTime = 169.35 s  ClockTime = 169 s

Selected 163 cells for refinement out of 163167.
Refined from 163167 to 164308 cells.
Selected 0 split points out of a possible 18611.
Courant Number Mean/Max = 0.0644503, 0.476859
deltaT = 8.33333e-06
Time = 0.00318333333333

Calculating Fluxes
RK2SSP: step 1
Solving compressibleSystem:

RK2SSP: step 2
Solving compressibleSystem:

Post-updating compressibleSystem:

max(p): 736309, min(p): 3918.23
max(T): 1238.2, min(T): 287.926
ExecutionTime = 170.07 s  ClockTime = 170 s

Courant Number Mean/Max = 0.0644801, 0.47828
deltaT = 8.33333e-06
Time = 0.00319166666667

Calculating Fluxes
RK2SSP: step 1
Solving compressibleSystem:

RK2SSP: step 2
Solving compressibleSystem:

Post-updating compressibleSystem:

max(p): 735582, min(p): 4647.29
max(T): 1234.28, min(T): 287.926
ExecutionTime = 170.8 s  ClockTime = 171 s

Selected 168 cells for refinement out of 164308.
Refined from 164308 to 165484 cells.
Selected 0 split points out of a possible 18765.
Maximum imbalance = 5.03855 %
Courant Number Mean/Max = 0.0646791, 0.479499
deltaT = 8.33333e-06
Time = 0.0032

Calculating Fluxes
RK2SSP: step 1
Solving compressibleSystem:

RK2SSP: step 2
Solving compressibleSystem:

Post-updating compressibleSystem:

max(p): 734053, min(p): 5444.38
max(T): 1230.31, min(T): 287.926
ExecutionTime = 172.08 s  ClockTime = 172 s

Courant Number Mean/Max = 0.0647086, 0.480536
deltaT = 8.33333e-06
Time = 0.00320833333333

Calculating Fluxes
RK2SSP: step 1
Solving compressibleSystem:

RK2SSP: step 2
Solving compressibleSystem:

Post-updating compressibleSystem:

max(p): 731769, min(p): 6438.65
max(T): 1226.28, min(T): 287.926
ExecutionTime = 173.26 s  ClockTime = 173 s

Selected 155 cells for refinement out of 165484.
Refined from 165484 to 166569 cells.
Selected 0 split points out of a possible 18904.
Courant Number Mean/Max = 0.0649066, 0.481407
deltaT = 8.33333e-06
Time = 0.00321666666667

Calculating Fluxes
RK2SSP: step 1
Solving compressibleSystem:

RK2SSP: step 2
Solving compressibleSystem:

Post-updating compressibleSystem:

max(p): 728797, min(p): 7674.04
max(T): 1222.2, min(T): 287.926
ExecutionTime = 173.92 s  ClockTime = 174 s

Courant Number Mean/Max = 0.0649357, 0.48213
deltaT = 8.33333e-06
Time = 0.003225

Calculating Fluxes
RK2SSP: step 1
Solving compressibleSystem:

RK2SSP: step 2
Solving compressibleSystem:

Post-updating compressibleSystem:

max(p): 726297, min(p): 9045.65
max(T): 1218.08, min(T): 287.926
ExecutionTime = 174.55 s  ClockTime = 174 s

Selected 124 cells for refinement out of 166569.
Refined from 166569 to 167437 cells.
Selected 0 split points out of a possible 19012.
Maximum imbalance = 5.79502 %
Courant Number Mean/Max = 0.065101, 0.482716
deltaT = 8.33333e-06
Time = 0.00323333333333

Calculating Fluxes
RK2SSP: step 1
Solving compressibleSystem:

RK2SSP: step 2
Solving compressibleSystem:

Post-updating compressibleSystem:

max(p): 724589, min(p): 10076
max(T): 1213.9, min(T): 287.926
ExecutionTime = 175.21 s  ClockTime = 175 s

Courant Number Mean/Max = 0.0651299, 0.483179
deltaT = 8.33333e-06
Time = 0.00324166666667

Calculating Fluxes
RK2SSP: step 1
Solving compressibleSystem:

RK2SSP: step 2
Solving compressibleSystem:

Post-updating compressibleSystem:

max(p): 722227, min(p): 10435
max(T): 1209.69, min(T): 287.926
ExecutionTime = 175.85 s  ClockTime = 176 s

Selected 134 cells for refinement out of 167437.
Refined from 167437 to 168375 cells.
Selected 0 split points out of a possible 19127.
Courant Number Mean/Max = 0.0653006, 0.483531
deltaT = 8.33333e-06
Time = 0.00325

Calculating Fluxes
RK2SSP: step 1
Solving compressibleSystem:

RK2SSP: step 2
Solving compressibleSystem:

Post-updating compressibleSystem:

max(p): 719212, min(p): 10308.3
max(T): 1205.45, min(T): 287.926
ExecutionTime = 177.14 s  ClockTime = 177 s

Courant Number Mean/Max = 0.0653291, 0.483785
deltaT = 8.33333e-06
Time = 0.00325833333333

Calculating Fluxes
RK2SSP: step 1
Solving compressibleSystem:

RK2SSP: step 2
Solving compressibleSystem:

Post-updating compressibleSystem:

max(p): 715546, min(p): 10184.7
max(T): 1201.17, min(T): 287.926
ExecutionTime = 177.94 s  ClockTime = 178 s

Selected 142 cells for refinement out of 168375.
Refined from 168375 to 169369 cells.
Selected 0 split points out of a possible 19249.
Maximum imbalance = 6.52245 %
Courant Number Mean/Max = 0.0655157, 0.484076
deltaT = 8.33333e-06
Time = 0.00326666666667

Calculating Fluxes
RK2SSP: step 1
Solving compressibleSystem:

RK2SSP: step 2
Solving compressibleSystem:

Post-updating compressibleSystem:

max(p): 711239, min(p): 10065.8
max(T): 1196.94, min(T): 287.926
ExecutionTime = 178.61 s  ClockTime = 178 s

Courant Number Mean/Max = 0.065544, 0.484366
deltaT = 8.33333e-06
Time = 0.003275

Calculating Fluxes
RK2SSP: step 1
Solving compressibleSystem:

RK2SSP: step 2
Solving compressibleSystem:

Post-updating compressibleSystem:

max(p): 706296, min(p): 9951.75
max(T): 1192.73, min(T): 287.926
ExecutionTime = 179.25 s  ClockTime = 179 s

Selected 156 cells for refinement out of 169369.
Refined from 169369 to 170461 cells.
Selected 0 split points out of a possible 19391.
Courant Number Mean/Max = 0.0657367, 0.484569
deltaT = 8.33333e-06
Time = 0.00328333333333

Calculating Fluxes
RK2SSP: step 1
Solving compressibleSystem:

RK2SSP: step 2
Solving compressibleSystem:

Post-updating compressibleSystem:

max(p): 704288, min(p): 9843.31
max(T): 1188.53, min(T): 287.926
ExecutionTime = 180.01 s  ClockTime = 180 s

Courant Number Mean/Max = 0.0657648, 0.484699
deltaT = 8.33333e-06
Time = 0.00329166666667

Calculating Fluxes
RK2SSP: step 1
Solving compressibleSystem:

RK2SSP: step 2
Solving compressibleSystem:

Post-updating compressibleSystem:

max(p): 702591, min(p): 9741.46
max(T): 1184.34, min(T): 287.926
ExecutionTime = 180.71 s  ClockTime = 181 s

Selected 149 cells for refinement out of 170461.
Refined from 170461 to 171504 cells.
Selected 0 split points out of a possible 19529.
Maximum imbalance = 7.12287 %
Courant Number Mean/Max = 0.0659467, 0.484771
deltaT = 8.33333e-06
Time = 0.0033

Calculating Fluxes
RK2SSP: step 1
Solving compressibleSystem:

RK2SSP: step 2
Solving compressibleSystem:

Post-updating compressibleSystem:

max(p): 700242, min(p): 9645.97
max(T): 1180.15, min(T): 287.926
ExecutionTime = 182.14 s  ClockTime = 182 s

Courant Number Mean/Max = 0.0659744, 0.485152
deltaT = 8.33333e-06
Time = 0.00330833333333

Calculating Fluxes
RK2SSP: step 1
Solving compressibleSystem:

RK2SSP: step 2
Solving compressibleSystem:

Post-updating compressibleSystem:

max(p): 697278, min(p): 9556.89
max(T): 1175.95, min(T): 287.926
ExecutionTime = 183.28 s  ClockTime = 183 s

Selected 146 cells for refinement out of 171504.
Refined from 171504 to 172526 cells.
Selected 0 split points out of a possible 19666.
Courant Number Mean/Max = 0.0661827, 0.485606
deltaT = 8.33333e-06
Time = 0.00331666666667

Calculating Fluxes
RK2SSP: step 1
Solving compressibleSystem:

RK2SSP: step 2
Solving compressibleSystem:

Post-updating compressibleSystem:

max(p): 693712, min(p): 9453.9
max(T): 1171.75, min(T): 287.926
ExecutionTime = 183.97 s  ClockTime = 184 s

Courant Number Mean/Max = 0.0662102, 0.485921
deltaT = 8.33333e-06
Time = 0.003325

Calculating Fluxes
RK2SSP: step 1
Solving compressibleSystem:

RK2SSP: step 2
Solving compressibleSystem:

Post-updating compressibleSystem:

max(p): 689646, min(p): 9355.83
max(T): 1167.55, min(T): 287.926
ExecutionTime = 184.62 s  ClockTime = 184 s

Selected 140 cells for refinement out of 172526.
Refined from 172526 to 173506 cells.
Selected 0 split points out of a possible 19790.
Maximum imbalance = 7.87984 %
Courant Number Mean/Max = 0.0663796, 0.486126
deltaT = 8.33333e-06
Time = 0.00333333333333

Calculating Fluxes
RK2SSP: step 1
Solving compressibleSystem:

RK2SSP: step 2
Solving compressibleSystem:

Post-updating compressibleSystem:

max(p): 687032, min(p): 9262.35
max(T): 1163.32, min(T): 287.926
ExecutionTime = 185.31 s  ClockTime = 185 s

Courant Number Mean/Max = 0.0664068, 0.486788
deltaT = 8.33333e-06
Time = 0.00334166666667

Calculating Fluxes
RK2SSP: step 1
Solving compressibleSystem:

RK2SSP: step 2
Solving compressibleSystem:

Post-updating compressibleSystem:

max(p): 684368, min(p): 9174.06
max(T): 1160.46, min(T): 287.926
ExecutionTime = 185.96 s  ClockTime = 186 s

Selected 163 cells for refinement out of 173506.
Refined from 173506 to 174647 cells.
Selected 0 split points out of a possible 19940.
Courant Number Mean/Max = 0.066609, 0.487313
deltaT = 8.33333e-06
Time = 0.00335

Calculating Fluxes
RK2SSP: step 1
Solving compressibleSystem:

RK2SSP: step 2
Solving compressibleSystem:

Post-updating compressibleSystem:

max(p): 682224, min(p): 9074.11
max(T): 1157.58, min(T): 287.926
ExecutionTime = 187.25 s  ClockTime = 187 s

Courant Number Mean/Max = 0.0666359, 0.487722
deltaT = 8.33333e-06
Time = 0.00335833333333

Calculating Fluxes
RK2SSP: step 1
Solving compressibleSystem:

RK2SSP: step 2
Solving compressibleSystem:

Post-updating compressibleSystem:

max(p): 681398, min(p): 8972.71
max(T): 1154.9, min(T): 287.926
ExecutionTime = 188.11 s  ClockTime = 188 s

Selected 133 cells for refinement out of 174647.
Refined from 174647 to 175578 cells.
Selected 0 split points out of a possible 20062.
Maximum imbalance = 8.36893 %
Courant Number Mean/Max = 0.066816, 0.488036
deltaT = 8.33333e-06
Time = 0.00336666666667

Calculating Fluxes
RK2SSP: step 1
Solving compressibleSystem:

RK2SSP: step 2
Solving compressibleSystem:

Post-updating compressibleSystem:

max(p): 680247, min(p): 8873.12
max(T): 1152.3, min(T): 287.926
ExecutionTime = 188.89 s  ClockTime = 189 s

Courant Number Mean/Max = 0.0668426, 0.488276
deltaT = 8.33333e-06
Time = 0.003375

Calculating Fluxes
RK2SSP: step 1
Solving compressibleSystem:

RK2SSP: step 2
Solving compressibleSystem:

Post-updating compressibleSystem:

max(p): 678511, min(p): 8777.05
max(T): 1149.65, min(T): 287.926
ExecutionTime = 189.64 s  ClockTime = 189 s

Selected 112 cells for refinement out of 175578.
Refined from 175578 to 176362 cells.
Selected 0 split points out of a possible 20162.
Courant Number Mean/Max = 0.0669909, 0.488456
deltaT = 8.33333e-06
Time = 0.00338333333333

Calculating Fluxes
RK2SSP: step 1
Solving compressibleSystem:

RK2SSP: step 2
Solving compressibleSystem:

Post-updating compressibleSystem:

max(p): 676162, min(p): 8688.82
max(T): 1146.94, min(T): 287.926
ExecutionTime = 190.35 s  ClockTime = 190 s

Courant Number Mean/Max = 0.0670173, 0.488593
deltaT = 8.33333e-06
Time = 0.00339166666667

Calculating Fluxes
RK2SSP: step 1
Solving compressibleSystem:

RK2SSP: step 2
Solving compressibleSystem:

Post-updating compressibleSystem:

max(p): 673191, min(p): 8610.14
max(T): 1144.16, min(T): 287.926
ExecutionTime = 191.11 s  ClockTime = 191 s

Selected 142 cells for refinement out of 176362.
Refined from 176362 to 177356 cells.
Selected 0 split points out of a possible 20289.
Maximum imbalance = 8.90864 %
Courant Number Mean/Max = 0.0671896, 0.488701
deltaT = 8.33333e-06
Time = 0.0034

Calculating Fluxes
RK2SSP: step 1
Solving compressibleSystem:

RK2SSP: step 2
Solving compressibleSystem:

Post-updating compressibleSystem:

max(p): 669931, min(p): 8541.01
max(T): 1141.29, min(T): 287.926
ExecutionTime = 192.44 s  ClockTime = 192 s

Courant Number Mean/Max = 0.0672158, 0.488792
deltaT = 8.33333e-06
Time = 0.00340833333333

Calculating Fluxes
RK2SSP: step 1
Solving compressibleSystem:

RK2SSP: step 2
Solving compressibleSystem:

Post-updating compressibleSystem:

max(p): 669949, min(p): 8481.88
max(T): 1148.19, min(T): 287.926
ExecutionTime = 193.63 s  ClockTime = 193 s

Selected 124 cells for refinement out of 177356.
Refined from 177356 to 178224 cells.
Selected 0 split points out of a possible 20399.
Courant Number Mean/Max = 0.0673781, 0.488874
deltaT = 8.33333e-06
Time = 0.00341666666667

Calculating Fluxes
RK2SSP: step 1
Solving compressibleSystem:

RK2SSP: step 2
Solving compressibleSystem:

Post-updating compressibleSystem:

max(p): 669344, min(p): 8409.79
max(T): 1154.43, min(T): 287.926
ExecutionTime = 194.45 s  ClockTime = 194 s

Courant Number Mean/Max = 0.0674039, 0.48895
deltaT = 8.33333e-06
Time = 0.003425

Calculating Fluxes
RK2SSP: step 1
Solving compressibleSystem:

RK2SSP: step 2
Solving compressibleSystem:

Post-updating compressibleSystem:

max(p): 668136, min(p): 8315.94
max(T): 1159.76, min(T): 287.926
ExecutionTime = 195.24 s  ClockTime = 195 s

Selected 192 cells for refinement out of 178224.
Refined from 178224 to 179568 cells.
Selected 0 split points out of a possible 20569.
Maximum imbalance = 9.58634 %
Courant Number Mean/Max = 0.0676426, 0.489017
deltaT = 8.33333e-06
Time = 0.00343333333333

Calculating Fluxes
RK2SSP: step 1
Solving compressibleSystem:

RK2SSP: step 2
Solving compressibleSystem:

Post-updating compressibleSystem:

max(p): 666355, min(p): 8231.04
max(T): 1164.31, min(T): 287.926
ExecutionTime = 196.09 s  ClockTime = 196 s

Courant Number Mean/Max = 0.0676682, 0.489067
deltaT = 8.33333e-06
Time = 0.00344166666667

Calculating Fluxes
RK2SSP: step 1
Solving compressibleSystem:

RK2SSP: step 2
Solving compressibleSystem:

Post-updating compressibleSystem:

max(p): 664012, min(p): 8159.67
max(T): 1168.19, min(T): 287.926
ExecutionTime = 196.84 s  ClockTime = 197 s

Selected 159 cells for refinement out of 179568.
Refined from 179568 to 180681 cells.
Selected 0 split points out of a possible 20704.
Courant Number Mean/Max = 0.0678605, 0.489092
deltaT = 8.33333e-06
Time = 0.00345

Calculating Fluxes
RK2SSP: step 1
Solving compressibleSystem:

RK2SSP: step 2
Solving compressibleSystem:

Post-updating compressibleSystem:

max(p): 661101, min(p): 8104.95
max(T): 1171.49, min(T): 287.926
ExecutionTime = 198.14 s  ClockTime = 198 s

Courant Number Mean/Max = 0.0678858, 0.489216
deltaT = 8.33333e-06
Time = 0.00345833333333

Calculating Fluxes
RK2SSP: step 1
Solving compressibleSystem:

RK2SSP: step 2
Solving compressibleSystem:

Post-updating compressibleSystem:

max(p): 658567, min(p): 8068.86
max(T): 1174.29, min(T): 287.926
ExecutionTime = 198.96 s  ClockTime = 199 s

Selected 156 cells for refinement out of 180681.
Refined from 180681 to 181773 cells.
Selected 0 split points out of a possible 20835.
Maximum imbalance = 10.2672 %
Courant Number Mean/Max = 0.0680659, 0.489351
deltaT = 8.33333e-06
Time = 0.00346666666667

Calculating Fluxes
RK2SSP: step 1
Solving compressibleSystem:

RK2SSP: step 2
Solving compressibleSystem:

Post-updating compressibleSystem:

max(p): 656890, min(p): 8059.87
max(T): 1176.66, min(T): 287.926
ExecutionTime = 199.69 s  ClockTime = 200 s

Courant Number Mean/Max = 0.068091, 0.489476
deltaT = 8.33333e-06
Time = 0.003475

Calculating Fluxes
RK2SSP: step 1
Solving compressibleSystem:

RK2SSP: step 2
Solving compressibleSystem:

Post-updating compressibleSystem:

max(p): 654693, min(p): 8079.96
max(T): 1178.64, min(T): 287.926
ExecutionTime = 200.41 s  ClockTime = 200 s

Selected 166 cells for refinement out of 181773.
Refined from 181773 to 182935 cells.
Selected 0 split points out of a possible 20980.
Courant Number Mean/Max = 0.0682982, 0.489588
deltaT = 8.33333e-06
Time = 0.00348333333333

Calculating Fluxes
RK2SSP: step 1
Solving compressibleSystem:

RK2SSP: step 2
Solving compressibleSystem:

Post-updating compressibleSystem:

max(p): 651984, min(p): 8091.37
max(T): 1184, min(T): 287.926
ExecutionTime = 201.27 s  ClockTime = 201 s

Courant Number Mean/Max = 0.068323, 0.489682
deltaT = 8.33333e-06
Time = 0.00349166666667

Calculating Fluxes
RK2SSP: step 1
Solving compressibleSystem:

RK2SSP: step 2
Solving compressibleSystem:

Post-updating compressibleSystem:

max(p): 648776, min(p): 8099.45
max(T): 1190.34, min(T): 287.926
ExecutionTime = 202.02 s  ClockTime = 202 s

Selected 163 cells for refinement out of 182935.
Refined from 182935 to 184076 cells.
Selected 0 split points out of a possible 21135.
Maximum imbalance = 11.0476 %
Courant Number Mean/Max = 0.0685274, 0.489753
deltaT = 8.33333e-06
Time = 0.0035

Calculating Fluxes
RK2SSP: step 1
Solving compressibleSystem:

RK2SSP: step 2
Solving compressibleSystem:

Post-updating compressibleSystem:

max(p): 645055, min(p): 8124.75
max(T): 1195.93, min(T): 287.926
ExecutionTime = 203.42 s  ClockTime = 203 s

End

Finalising parallel run
